# ngspice simulation log: dynamic_spectrum.cir
Generated: 2026-06-05 18:02:50 UTC
Engine: ngspice behavioral netlist (reference: configurable_adc.va)
Netlist: /home/yongfu/proj/adc-model/outputs/ngspice/ngspice/dynamic_spectrum.cir
Includes: /home/yongfu/proj/adc-model/outputs/ngspice/ngspice/includes
Command: ngspice -b /home/yongfu/proj/adc-model/outputs/ngspice/ngspice/dynamic_spectrum.cir

Note: No compatibility mode selected!


Circuit: * dynamic spectrum testbench for configurable adc (ngspice behavioral)

Doing analysis at TEMP = 27.000000 and TNOM = 27.000000

Using SPARSE 1.3 as Direct Linear Solver

Initial Transient Solution
--------------------------

Node                                   Voltage
----                                   -------
vin                                        0.5
v_gain                                    0.51
v_nl                                      0.51
clk_int                                      0
bnonlin#branch                               0
bgain#branch                                 0
vclk#branch                                  0
vin#branch                                   0

 Reference value :  3.50501e-04 Reference value :  7.37000e-04 Reference value :  1.11453e-03 Reference value :  1.46800e-03 Reference value :  1.81300e-03 Reference value :  2.11936e-03 Reference value :  2.40400e-03 Reference value :  2.66700e-03 Reference value :  2.93500e-03 Reference value :  3.19800e-03 Reference value :  3.45800e-03 Reference value :  3.71550e-03 Reference value :  3.97503e-03 Reference value :  4.25200e-03 Reference value :  4.51150e-03 Reference value :  4.76186e-03 Reference value :  5.00750e-03 Reference value :  5.25100e-03 Reference value :  5.48436e-03 Reference value :  5.71400e-03 Reference value :  5.93850e-03 Reference value :  6.16100e-03 Reference value :  6.37750e-03 Reference value :  6.58950e-03 Reference value :  6.79553e-03 Reference value :  7.00351e-03 Reference value :  7.20950e-03 Reference value :  7.40811e-03 Reference value :  7.60361e-03 Reference value :  7.79823e-03 Reference value :  8.05250e-03
No. of Data Rows : 323301
Note: Simulation executed from .control section 
