# ngspice simulation log: static_inl_dnl.cir
Generated: 2026-06-04 11:20:04 UTC
Engine: ngspice behavioral netlist (reference: configurable_adc.va)
Netlist: /home/yongfu/proj/adc-calibration/model/adc-model/outputs/ngspice/ngspice/static_inl_dnl.cir
Includes: /home/yongfu/proj/adc-calibration/model/adc-model/outputs/ngspice/ngspice/includes
Command: ngspice -b /home/yongfu/proj/adc-calibration/model/adc-model/outputs/ngspice/ngspice/static_inl_dnl.cir

Note: No compatibility mode selected!


Circuit: * static inl/dnl testbench for configurable adc (ngspice behavioral)

Doing analysis at TEMP = 27.000000 and TNOM = 27.000000

Using SPARSE 1.3 as Direct Linear Solver

Initial Transient Solution
--------------------------

Node                                   Voltage
----                                   -------
vin                                0.000488759
v_gain                              0.00549365
v_nl                                 0.0052518
clk_int                                      0
bnonlin#branch                               0
bgain#branch                                 0
vclk#branch                                  0
vin#branch                                   0

 Reference value :  3.15500e-04 Reference value :  6.92500e-04 Reference value :  1.06400e-03 Reference value :  1.40950e-03 Reference value :  1.74350e-03 Reference value :  2.04353e-03 Reference value :  2.31851e-03 Reference value :  2.57900e-03 Reference value :  2.83900e-03 Reference value :  3.09850e-03 Reference value :  3.35300e-03 Reference value :  3.57606e-03 Reference value :  3.81950e-03 Reference value :  4.08601e-03 Reference value :  4.34250e-03 Reference value :  4.59150e-03 Reference value :  4.83150e-03 Reference value :  5.07100e-03 Reference value :  5.30500e-03 Reference value :  5.53300e-03 Reference value :  5.75306e-03 Reference value :  5.97300e-03 Reference value :  6.18650e-03 Reference value :  6.39750e-03 Reference value :  6.60150e-03 Reference value :  6.80556e-03 Reference value :  7.00150e-03 Reference value :  7.19850e-03 Reference value :  7.39251e-03 Reference value :  7.58550e-03 Reference value :  7.77200e-03 Reference value :  8.00450e-03 Reference value :  8.23950e-03 Reference value :  8.45350e-03 Reference value :  8.66211e-03 Reference value :  8.85850e-03 Reference value :  9.05900e-03 Reference value :  9.25500e-03 Reference value :  9.45400e-03 Reference value :  9.65150e-03 Reference value :  9.84500e-03 Reference value :  1.00375e-02 Reference value :  1.02275e-02 Reference value :  1.04175e-02 Reference value :  1.06045e-02 Reference value :  1.08025e-02 Reference value :  1.09985e-02 Reference value :  1.11955e-02 Reference value :  1.13800e-02 Reference value :  1.15655e-02 Reference value :  1.17540e-02 Reference value :  1.19402e-02 Reference value :  1.21195e-02 Reference value :  1.23021e-02 Reference value :  1.24825e-02 Reference value :  1.26610e-02 Reference value :  1.28355e-02 Reference value :  1.30140e-02 Reference value :  1.31912e-02 Reference value :  1.33650e-02 Reference value :  1.35370e-02 Reference value :  1.37105e-02 Reference value :  1.38810e-02 Reference value :  1.40475e-02 Reference value :  1.42115e-02 Reference value :  1.43775e-02 Reference value :  1.45385e-02 Reference value :  1.47020e-02 Reference value :  1.48627e-02 Reference value :  1.50213e-02 Reference value :  1.51821e-02 Reference value :  1.53419e-02 Reference value :  1.55014e-02 Reference value :  1.56490e-02 Reference value :  1.57915e-02 Reference value :  1.59330e-02 Reference value :  1.60730e-02 Reference value :  1.62085e-02 Reference value :  1.63455e-02
No. of Data Rows : 618149
Note: Simulation executed from .control section 
