# ngspice simulation log: static_inl_dnl.cir
Generated: 2026-06-05 18:18:16 UTC
Engine: ngspice behavioral netlist (reference: configurable_adc.va)
Netlist: /home/yongfu/proj/adc-model/outputs/ngspice/ngspice/static_inl_dnl.cir
Includes: /home/yongfu/proj/adc-model/outputs/ngspice/ngspice/includes
Command: ngspice -b /home/yongfu/proj/adc-model/outputs/ngspice/ngspice/static_inl_dnl.cir

Note: No compatibility mode selected!


Circuit: * static inl/dnl testbench for configurable adc (ngspice behavioral)

Doing analysis at TEMP = 27.000000 and TNOM = 27.000000

Using SPARSE 1.3 as Direct Linear Solver

Initial Transient Solution
--------------------------

Node                                   Voltage
----                                   -------
vin                                0.000488759
v_gain                              0.00549365
v_nl                                 0.0052518
clk_int                                      0
bnonlin#branch                               0
bgain#branch                                 0
vclk#branch                                  0
vin#branch                                   0

 Reference value :  3.07014e-04 Reference value :  6.64000e-04 Reference value :  1.02650e-03 Reference value :  1.36550e-03 Reference value :  1.69200e-03 Reference value :  1.99203e-03 Reference value :  2.26003e-03 Reference value :  2.52000e-03 Reference value :  2.77700e-03 Reference value :  3.02750e-03 Reference value :  3.27361e-03 Reference value :  3.50200e-03 Reference value :  3.72350e-03 Reference value :  3.96550e-03 Reference value :  4.22400e-03 Reference value :  4.46800e-03 Reference value :  4.70101e-03 Reference value :  4.92901e-03 Reference value :  5.15450e-03 Reference value :  5.37450e-03 Reference value :  5.59050e-03 Reference value :  5.80200e-03 Reference value :  6.00951e-03 Reference value :  6.21300e-03 Reference value :  6.40900e-03 Reference value :  6.60751e-03 Reference value :  6.80200e-03 Reference value :  6.99250e-03 Reference value :  7.17900e-03 Reference value :  7.37056e-03 Reference value :  7.55551e-03 Reference value :  7.74051e-03 Reference value :  7.96300e-03 Reference value :  8.20400e-03 Reference value :  8.41550e-03 Reference value :  8.62311e-03 Reference value :  8.83200e-03 Reference value :  9.03719e-03 Reference value :  9.23950e-03 Reference value :  9.44000e-03 Reference value :  9.63751e-03 Reference value :  9.83550e-03 Reference value :  1.00282e-02 Reference value :  1.02215e-02 Reference value :  1.04135e-02 Reference value :  1.06015e-02 Reference value :  1.07895e-02 Reference value :  1.09746e-02 Reference value :  1.11585e-02 Reference value :  1.13415e-02 Reference value :  1.15220e-02 Reference value :  1.17020e-02 Reference value :  1.18815e-02 Reference value :  1.20584e-02 Reference value :  1.22345e-02 Reference value :  1.24100e-02 Reference value :  1.25830e-02 Reference value :  1.27535e-02 Reference value :  1.29250e-02 Reference value :  1.30955e-02 Reference value :  1.32631e-02 Reference value :  1.34286e-02 Reference value :  1.35956e-02 Reference value :  1.37585e-02 Reference value :  1.39220e-02 Reference value :  1.40844e-02 Reference value :  1.42445e-02 Reference value :  1.44055e-02 Reference value :  1.45640e-02 Reference value :  1.47235e-02 Reference value :  1.48820e-02 Reference value :  1.50365e-02 Reference value :  1.51931e-02 Reference value :  1.53460e-02 Reference value :  1.54995e-02 Reference value :  1.56500e-02 Reference value :  1.57855e-02 Reference value :  1.59217e-02 Reference value :  1.60565e-02 Reference value :  1.61925e-02 Reference value :  1.63260e-02
No. of Data Rows : 618149
Note: Simulation executed from .control section 
