# ngspice simulation log: dynamic_spectrum.cir
Generated: 2026-06-04 11:20:26 UTC
Engine: ngspice behavioral netlist (reference: configurable_adc.va)
Netlist: /home/yongfu/proj/adc-calibration/model/adc-model/outputs/ngspice/ngspice/dynamic_spectrum.cir
Includes: /home/yongfu/proj/adc-calibration/model/adc-model/outputs/ngspice/ngspice/includes
Command: ngspice -b /home/yongfu/proj/adc-calibration/model/adc-model/outputs/ngspice/ngspice/dynamic_spectrum.cir

Note: No compatibility mode selected!


Circuit: * dynamic spectrum testbench for configurable adc (ngspice behavioral)

Doing analysis at TEMP = 27.000000 and TNOM = 27.000000

Using SPARSE 1.3 as Direct Linear Solver

Initial Transient Solution
--------------------------

Node                                   Voltage
----                                   -------
vin                                        0.5
v_gain                                    0.51
v_nl                                      0.51
clk_int                                      0
bnonlin#branch                               0
bgain#branch                                 0
vclk#branch                                  0
vin#branch                                   0

 Reference value :  3.37500e-04 Reference value :  7.12865e-04 Reference value :  1.08411e-03 Reference value :  1.43573e-03 Reference value :  1.77300e-03 Reference value :  2.07900e-03 Reference value :  2.35823e-03 Reference value :  2.62973e-03 Reference value :  2.89400e-03 Reference value :  3.15501e-03 Reference value :  3.41200e-03 Reference value :  3.66300e-03 Reference value :  3.90701e-03 Reference value :  4.18350e-03 Reference value :  4.44000e-03 Reference value :  4.68186e-03 Reference value :  4.91650e-03 Reference value :  5.15100e-03 Reference value :  5.37853e-03 Reference value :  5.60350e-03 Reference value :  5.82150e-03 Reference value :  6.03850e-03 Reference value :  6.25300e-03 Reference value :  6.46161e-03 Reference value :  6.66500e-03 Reference value :  6.86600e-03 Reference value :  7.04356e-03 Reference value :  7.25101e-03 Reference value :  7.45073e-03 Reference value :  7.64150e-03 Reference value :  7.84300e-03 Reference value :  8.10001e-03
No. of Data Rows : 323301
Note: Simulation executed from .control section 
