# ngspice simulation log: static_inl_dnl.cir
Generated: 2026-06-04 09:17:08 UTC
Engine: ngspice behavioral netlist (reference: configurable_adc.va)
Netlist: /home/yongfu/proj/adc-model/outputs/ngspice/ngspice/static_inl_dnl.cir
Includes: /home/yongfu/proj/adc-model/outputs/ngspice/ngspice/includes
Command: ngspice -b /home/yongfu/proj/adc-model/outputs/ngspice/ngspice/static_inl_dnl.cir

Note: No compatibility mode selected!


Circuit: * static inl/dnl testbench for configurable adc (ngspice behavioral)

Doing analysis at TEMP = 27.000000 and TNOM = 27.000000

Using SPARSE 1.3 as Direct Linear Solver

Initial Transient Solution
--------------------------

Node                                   Voltage
----                                   -------
vin                                0.000488759
v_gain                              0.00549365
v_nl                                 0.0052518
clk_int                                      0
bnonlin#branch                               0
bgain#branch                                 0
vclk#branch                                  0
vin#branch                                   0

 Reference value :  3.08002e-04 Reference value :  6.67000e-04 Reference value :  1.02150e-03 Reference value :  1.35950e-03 Reference value :  1.69473e-03 Reference value :  2.00650e-03 Reference value :  2.27456e-03 Reference value :  2.54150e-03 Reference value :  2.80503e-03 Reference value :  3.06350e-03 Reference value :  3.31250e-03 Reference value :  3.55500e-03 Reference value :  3.79450e-03 Reference value :  4.05151e-03 Reference value :  4.30200e-03 Reference value :  4.54150e-03 Reference value :  4.78253e-03 Reference value :  5.01600e-03 Reference value :  5.23973e-03 Reference value :  5.45600e-03 Reference value :  5.67100e-03 Reference value :  5.88550e-03 Reference value :  6.09300e-03 Reference value :  6.29750e-03 Reference value :  6.49700e-03 Reference value :  6.69300e-03 Reference value :  6.88551e-03 Reference value :  7.07650e-03 Reference value :  7.26723e-03 Reference value :  7.45700e-03 Reference value :  7.63950e-03 Reference value :  7.82400e-03 Reference value :  8.06736e-03 Reference value :  8.28900e-03 Reference value :  8.47400e-03 Reference value :  8.68250e-03 Reference value :  8.88700e-03 Reference value :  9.08953e-03 Reference value :  9.29000e-03 Reference value :  9.48850e-03 Reference value :  9.68251e-03 Reference value :  9.87636e-03 Reference value :  1.00687e-02 Reference value :  1.02625e-02 Reference value :  1.04550e-02 Reference value :  1.06457e-02 Reference value :  1.08325e-02 Reference value :  1.10207e-02 Reference value :  1.12080e-02 Reference value :  1.13924e-02 Reference value :  1.15740e-02 Reference value :  1.17545e-02 Reference value :  1.19355e-02 Reference value :  1.21010e-02 Reference value :  1.22765e-02 Reference value :  1.24500e-02 Reference value :  1.26225e-02 Reference value :  1.27937e-02 Reference value :  1.29665e-02 Reference value :  1.31351e-02 Reference value :  1.33045e-02 Reference value :  1.34725e-02 Reference value :  1.36385e-02 Reference value :  1.38017e-02 Reference value :  1.39665e-02 Reference value :  1.41309e-02 Reference value :  1.42925e-02 Reference value :  1.44517e-02 Reference value :  1.46145e-02 Reference value :  1.47739e-02 Reference value :  1.49320e-02 Reference value :  1.50852e-02 Reference value :  1.52409e-02 Reference value :  1.53950e-02 Reference value :  1.55495e-02 Reference value :  1.56950e-02 Reference value :  1.58345e-02 Reference value :  1.59705e-02 Reference value :  1.61080e-02 Reference value :  1.62445e-02 Reference value :  1.63816e-02
No. of Data Rows : 618149
Note: Simulation executed from .control section 
