# ngspice simulation log: static_inl_dnl.cir
Generated: 2026-06-04 07:36:59 UTC
Engine: ngspice behavioral netlist (reference: configurable_adc.va)
Netlist: /home/yongfu/proj/adc-model/outputs/ngspice/ngspice/static_inl_dnl.cir
Includes: /home/yongfu/proj/adc-model/outputs/ngspice/ngspice/includes
Command: ngspice -b /home/yongfu/proj/adc-model/outputs/ngspice/ngspice/static_inl_dnl.cir

Note: No compatibility mode selected!


Circuit: * static inl/dnl testbench for configurable adc (ngspice behavioral)

Doing analysis at TEMP = 27.000000 and TNOM = 27.000000

Using SPARSE 1.3 as Direct Linear Solver

Initial Transient Solution
--------------------------

Node                                   Voltage
----                                   -------
vin                                0.000488759
v_gain                              0.00549365
v_nl                                 0.0052518
clk_int                                      0
bnonlin#branch                               0
bgain#branch                                 0
vclk#branch                                  0
vin#branch                                   0

 Reference value :  1.75500e-04 Reference value :  4.09004e-04 Reference value :  6.42000e-04 Reference value :  8.78501e-04 Reference value :  1.11150e-03 Reference value :  1.33750e-03 Reference value :  1.55800e-03 Reference value :  1.77634e-03 Reference value :  1.98551e-03 Reference value :  2.17053e-03 Reference value :  2.35150e-03 Reference value :  2.52973e-03 Reference value :  2.70700e-03 Reference value :  2.88150e-03 Reference value :  3.05400e-03 Reference value :  3.22450e-03 Reference value :  3.39300e-03 Reference value :  3.55601e-03 Reference value :  3.72111e-03 Reference value :  3.88500e-03 Reference value :  4.06900e-03 Reference value :  4.24400e-03 Reference value :  4.41401e-03 Reference value :  4.58051e-03 Reference value :  4.74501e-03 Reference value :  4.90700e-03 Reference value :  5.06700e-03 Reference value :  5.22550e-03 Reference value :  5.38100e-03 Reference value :  5.53551e-03 Reference value :  5.68861e-03 Reference value :  5.83850e-03 Reference value :  5.98601e-03 Reference value :  6.13256e-03 Reference value :  6.27800e-03 Reference value :  6.42153e-03 Reference value :  6.56150e-03 Reference value :  6.70150e-03 Reference value :  6.83900e-03 Reference value :  6.97500e-03 Reference value :  7.11000e-03 Reference value :  7.24451e-03 Reference value :  7.37900e-03 Reference value :  7.51200e-03 Reference value :  7.64300e-03 Reference value :  7.77356e-03 Reference value :  7.93351e-03 Reference value :  8.10500e-03 Reference value :  8.26411e-03 Reference value :  8.41334e-03 Reference value :  8.56056e-03 Reference value :  8.70750e-03 Reference value :  8.85350e-03 Reference value :  9.00000e-03 Reference value :  9.14453e-03 Reference value :  9.28908e-03 Reference value :  9.43150e-03 Reference value :  9.57334e-03 Reference value :  9.71450e-03 Reference value :  9.85350e-03 Reference value :  9.99400e-03 Reference value :  1.01310e-02 Reference value :  1.02680e-02 Reference value :  1.04045e-02 Reference value :  1.05380e-02 Reference value :  1.06725e-02 Reference value :  1.08052e-02 Reference value :  1.09370e-02 Reference value :  1.10685e-02 Reference value :  1.11990e-02 Reference value :  1.13260e-02 Reference value :  1.14540e-02 Reference value :  1.15830e-02 Reference value :  1.17105e-02 Reference value :  1.18375e-02 Reference value :  1.19626e-02 Reference value :  1.20885e-02 Reference value :  1.22120e-02 Reference value :  1.23345e-02 Reference value :  1.24580e-02 Reference value :  1.25819e-02 Reference value :  1.27035e-02 Reference value :  1.28255e-02 Reference value :  1.29480e-02 Reference value :  1.30695e-02 Reference value :  1.31904e-02 Reference value :  1.33085e-02 Reference value :  1.34276e-02 Reference value :  1.35460e-02 Reference value :  1.36635e-02 Reference value :  1.37815e-02 Reference value :  1.38975e-02 Reference value :  1.40140e-02 Reference value :  1.41300e-02 Reference value :  1.42455e-02 Reference value :  1.43619e-02 Reference value :  1.44770e-02 Reference value :  1.45916e-02 Reference value :  1.46990e-02 Reference value :  1.48096e-02 Reference value :  1.49235e-02 Reference value :  1.50375e-02 Reference value :  1.51505e-02 Reference value :  1.52610e-02 Reference value :  1.53735e-02 Reference value :  1.54854e-02 Reference value :  1.55940e-02 Reference value :  1.56947e-02 Reference value :  1.57916e-02 Reference value :  1.58885e-02 Reference value :  1.59840e-02 Reference value :  1.60800e-02 Reference value :  1.61745e-02 Reference value :  1.62680e-02 Reference value :  1.63600e-02
No. of Data Rows : 618149
Note: Simulation executed from .control section 
