# ngspice simulation log: dynamic_spectrum.cir
Generated: 2026-06-04 09:17:31 UTC
Engine: ngspice behavioral netlist (reference: configurable_adc.va)
Netlist: /home/yongfu/proj/adc-model/outputs/ngspice/ngspice/dynamic_spectrum.cir
Includes: /home/yongfu/proj/adc-model/outputs/ngspice/ngspice/includes
Command: ngspice -b /home/yongfu/proj/adc-model/outputs/ngspice/ngspice/dynamic_spectrum.cir

Note: No compatibility mode selected!


Circuit: * dynamic spectrum testbench for configurable adc (ngspice behavioral)

Doing analysis at TEMP = 27.000000 and TNOM = 27.000000

Using SPARSE 1.3 as Direct Linear Solver

Initial Transient Solution
--------------------------

Node                                   Voltage
----                                   -------
vin                                        0.5
v_gain                                    0.51
v_nl                                      0.51
clk_int                                      0
bnonlin#branch                               0
bgain#branch                                 0
vclk#branch                                  0
vin#branch                                   0

 Reference value :  3.10865e-04 Reference value :  6.83500e-04 Reference value :  1.07850e-03 Reference value :  1.43450e-03 Reference value :  1.76250e-03 Reference value :  2.06050e-03 Reference value :  2.31411e-03 Reference value :  2.57300e-03 Reference value :  2.83006e-03 Reference value :  3.09451e-03 Reference value :  3.35700e-03 Reference value :  3.60856e-03 Reference value :  3.85000e-03 Reference value :  4.11950e-03 Reference value :  4.36850e-03 Reference value :  4.60100e-03 Reference value :  4.82550e-03 Reference value :  5.04850e-03 Reference value :  5.26500e-03 Reference value :  5.47950e-03 Reference value :  5.69200e-03 Reference value :  5.90703e-03 Reference value :  6.11401e-03 Reference value :  6.32001e-03 Reference value :  6.52000e-03 Reference value :  6.72650e-03 Reference value :  6.92600e-03 Reference value :  7.11700e-03 Reference value :  7.30501e-03 Reference value :  7.49200e-03 Reference value :  7.68103e-03 Reference value :  7.88850e-03 Reference value :  8.13750e-03
No. of Data Rows : 323301
Note: Simulation executed from .control section 
