# ngspice simulation log: static_inl_dnl.cir
Generated: 2026-06-04 09:58:04 UTC
Engine: ngspice behavioral netlist (reference: configurable_adc.va)
Netlist: /home/yongfu/proj/adc-model/outputs/ngspice/ngspice/static_inl_dnl.cir
Includes: /home/yongfu/proj/adc-model/outputs/ngspice/ngspice/includes
Command: ngspice -b /home/yongfu/proj/adc-model/outputs/ngspice/ngspice/static_inl_dnl.cir

Note: No compatibility mode selected!


Circuit: * static inl/dnl testbench for configurable adc (ngspice behavioral)

Doing analysis at TEMP = 27.000000 and TNOM = 27.000000

Using SPARSE 1.3 as Direct Linear Solver

Initial Transient Solution
--------------------------

Node                                   Voltage
----                                   -------
vin                                0.000488759
v_gain                              0.00549365
v_nl                                 0.0052518
clk_int                                      0
bnonlin#branch                               0
bgain#branch                                 0
vclk#branch                                  0
vin#branch                                   0

 Reference value :  1.40501e-04 Reference value :  3.50500e-04 Reference value :  5.57500e-04 Reference value :  7.48500e-04 Reference value :  9.31515e-04 Reference value :  1.13300e-03 Reference value :  1.30350e-03 Reference value :  1.49650e-03 Reference value :  1.67351e-03 Reference value :  1.86050e-03 Reference value :  2.01406e-03 Reference value :  2.16500e-03 Reference value :  2.31450e-03 Reference value :  2.47123e-03 Reference value :  2.60850e-03 Reference value :  2.76650e-03 Reference value :  2.91400e-03 Reference value :  3.07500e-03 Reference value :  3.24073e-03 Reference value :  3.40700e-03 Reference value :  3.55701e-03 Reference value :  3.68456e-03 Reference value :  3.84550e-03 Reference value :  4.02000e-03 Reference value :  4.18661e-03 Reference value :  4.34556e-03 Reference value :  4.50923e-03 Reference value :  4.66200e-03 Reference value :  4.81703e-03 Reference value :  4.97350e-03 Reference value :  5.12450e-03 Reference value :  5.27000e-03 Reference value :  5.42100e-03 Reference value :  5.56400e-03 Reference value :  5.70711e-03 Reference value :  5.85300e-03 Reference value :  5.99373e-03 Reference value :  6.13300e-03 Reference value :  6.26800e-03 Reference value :  6.40701e-03 Reference value :  6.54106e-03 Reference value :  6.67000e-03 Reference value :  6.78900e-03 Reference value :  6.92300e-03 Reference value :  7.04900e-03 Reference value :  7.17500e-03 Reference value :  7.30600e-03 Reference value :  7.43001e-03 Reference value :  7.55450e-03 Reference value :  7.67700e-03 Reference value :  7.79600e-03 Reference value :  7.94950e-03 Reference value :  8.11650e-03 Reference value :  8.26350e-03 Reference value :  8.40200e-03 Reference value :  8.54650e-03 Reference value :  8.68251e-03 Reference value :  8.82523e-03 Reference value :  8.96000e-03 Reference value :  9.10103e-03 Reference value :  9.23400e-03 Reference value :  9.37100e-03 Reference value :  9.47751e-03 Reference value :  9.61750e-03 Reference value :  9.74661e-03 Reference value :  9.87803e-03 Reference value :  1.00090e-02 Reference value :  1.01352e-02 Reference value :  1.02615e-02 Reference value :  1.03940e-02 Reference value :  1.05185e-02 Reference value :  1.06487e-02 Reference value :  1.07730e-02 Reference value :  1.08995e-02 Reference value :  1.10260e-02 Reference value :  1.11540e-02 Reference value :  1.12756e-02 Reference value :  1.14020e-02 Reference value :  1.15170e-02 Reference value :  1.16305e-02 Reference value :  1.17490e-02 Reference value :  1.18675e-02 Reference value :  1.19675e-02 Reference value :  1.20985e-02 Reference value :  1.22140e-02 Reference value :  1.23345e-02 Reference value :  1.24555e-02 Reference value :  1.25695e-02 Reference value :  1.26887e-02 Reference value :  1.28020e-02 Reference value :  1.29200e-02 Reference value :  1.30385e-02 Reference value :  1.31476e-02 Reference value :  1.32605e-02 Reference value :  1.33740e-02 Reference value :  1.34905e-02 Reference value :  1.36005e-02 Reference value :  1.37155e-02 Reference value :  1.38305e-02 Reference value :  1.39415e-02 Reference value :  1.40555e-02 Reference value :  1.41700e-02 Reference value :  1.42799e-02 Reference value :  1.43921e-02 Reference value :  1.45045e-02 Reference value :  1.46123e-02 Reference value :  1.47055e-02 Reference value :  1.48170e-02 Reference value :  1.49225e-02 Reference value :  1.50315e-02 Reference value :  1.51365e-02 Reference value :  1.52465e-02 Reference value :  1.53495e-02 Reference value :  1.54529e-02 Reference value :  1.55620e-02 Reference value :  1.56655e-02 Reference value :  1.57570e-02 Reference value :  1.58535e-02 Reference value :  1.59460e-02 Reference value :  1.60340e-02 Reference value :  1.61260e-02 Reference value :  1.62160e-02 Reference value :  1.63115e-02
No. of Data Rows : 618149
Note: Simulation executed from .control section 
