# ngspice simulation log: static_inl_dnl.cir
Generated: 2026-06-04 11:16:30 UTC
Engine: ngspice behavioral netlist (reference: configurable_adc.va)
Netlist: /home/yongfu/proj/adc-calibration/model/adc-model/outputs/ngspice/ngspice/static_inl_dnl.cir
Includes: /home/yongfu/proj/adc-calibration/model/adc-model/outputs/ngspice/ngspice/includes
Command: ngspice -b /home/yongfu/proj/adc-calibration/model/adc-model/outputs/ngspice/ngspice/static_inl_dnl.cir

Note: No compatibility mode selected!


Circuit: * static inl/dnl testbench for configurable adc (ngspice behavioral)

Doing analysis at TEMP = 27.000000 and TNOM = 27.000000

Using SPARSE 1.3 as Direct Linear Solver

Initial Transient Solution
--------------------------

Node                                   Voltage
----                                   -------
vin                                0.000488759
v_gain                              0.00549365
v_nl                                 0.0052518
clk_int                                      0
bnonlin#branch                               0
bgain#branch                                 0
vclk#branch                                  0
vin#branch                                   0

 Reference value :  3.09500e-04 Reference value :  6.71500e-04 Reference value :  1.03750e-03 Reference value :  1.38250e-03 Reference value :  1.72636e-03 Reference value :  2.02850e-03 Reference value :  2.27750e-03 Reference value :  2.54450e-03 Reference value :  2.80150e-03 Reference value :  3.04936e-03 Reference value :  3.29436e-03 Reference value :  3.52950e-03 Reference value :  3.77000e-03 Reference value :  4.01650e-03 Reference value :  4.26750e-03 Reference value :  4.50800e-03 Reference value :  4.74600e-03 Reference value :  4.97500e-03 Reference value :  5.20550e-03 Reference value :  5.42606e-03 Reference value :  5.64450e-03 Reference value :  5.86100e-03 Reference value :  6.07200e-03 Reference value :  6.27800e-03 Reference value :  6.48300e-03 Reference value :  6.68100e-03 Reference value :  6.87650e-03 Reference value :  7.06950e-03 Reference value :  7.25801e-03 Reference value :  7.44600e-03 Reference value :  7.63350e-03 Reference value :  7.82050e-03 Reference value :  8.06450e-03 Reference value :  8.29150e-03 Reference value :  8.49850e-03 Reference value :  8.70836e-03 Reference value :  8.90951e-03 Reference value :  9.09936e-03 Reference value :  9.28850e-03 Reference value :  9.47511e-03 Reference value :  9.66386e-03 Reference value :  9.85050e-03 Reference value :  1.00340e-02 Reference value :  1.02169e-02 Reference value :  1.04035e-02 Reference value :  1.05890e-02 Reference value :  1.07730e-02 Reference value :  1.09575e-02 Reference value :  1.11420e-02 Reference value :  1.13240e-02 Reference value :  1.15060e-02 Reference value :  1.16810e-02 Reference value :  1.18570e-02 Reference value :  1.20315e-02 Reference value :  1.22065e-02 Reference value :  1.23805e-02 Reference value :  1.25553e-02 Reference value :  1.27225e-02 Reference value :  1.28900e-02 Reference value :  1.30565e-02 Reference value :  1.32230e-02 Reference value :  1.33880e-02 Reference value :  1.35530e-02 Reference value :  1.37180e-02 Reference value :  1.38810e-02 Reference value :  1.40435e-02 Reference value :  1.41966e-02 Reference value :  1.43530e-02 Reference value :  1.45095e-02 Reference value :  1.46684e-02 Reference value :  1.48265e-02 Reference value :  1.49835e-02 Reference value :  1.51400e-02 Reference value :  1.52975e-02 Reference value :  1.54515e-02 Reference value :  1.56050e-02 Reference value :  1.57444e-02 Reference value :  1.58815e-02 Reference value :  1.60160e-02 Reference value :  1.61510e-02 Reference value :  1.62870e-02
No. of Data Rows : 618149
Note: Simulation executed from .control section 
