# ngspice simulation log: dynamic_spectrum.cir
Generated: 2026-06-04 11:16:53 UTC
Engine: ngspice behavioral netlist (reference: configurable_adc.va)
Netlist: /home/yongfu/proj/adc-calibration/model/adc-model/outputs/ngspice/ngspice/dynamic_spectrum.cir
Includes: /home/yongfu/proj/adc-calibration/model/adc-model/outputs/ngspice/ngspice/includes
Command: ngspice -b /home/yongfu/proj/adc-calibration/model/adc-model/outputs/ngspice/ngspice/dynamic_spectrum.cir

Note: No compatibility mode selected!


Circuit: * dynamic spectrum testbench for configurable adc (ngspice behavioral)

Doing analysis at TEMP = 27.000000 and TNOM = 27.000000

Using SPARSE 1.3 as Direct Linear Solver

Initial Transient Solution
--------------------------

Node                                   Voltage
----                                   -------
vin                                        0.5
v_gain                                    0.51
v_nl                                      0.51
clk_int                                      0
bnonlin#branch                               0
bgain#branch                                 0
vclk#branch                                  0
vin#branch                                   0

 Reference value :  3.43365e-04 Reference value :  7.19229e-04 Reference value :  1.08700e-03 Reference value :  1.43823e-03 Reference value :  1.77850e-03 Reference value :  2.08653e-03 Reference value :  2.36700e-03 Reference value :  2.64006e-03 Reference value :  2.90851e-03 Reference value :  3.17273e-03 Reference value :  3.43050e-03 Reference value :  3.68300e-03 Reference value :  3.93511e-03 Reference value :  4.21356e-03 Reference value :  4.46800e-03 Reference value :  4.71400e-03 Reference value :  4.95900e-03 Reference value :  5.19850e-03 Reference value :  5.43061e-03 Reference value :  5.65550e-03 Reference value :  5.87850e-03 Reference value :  6.09950e-03 Reference value :  6.31201e-03 Reference value :  6.52050e-03 Reference value :  6.72556e-03 Reference value :  6.92350e-03 Reference value :  7.12003e-03 Reference value :  7.31500e-03 Reference value :  7.50750e-03 Reference value :  7.70336e-03 Reference value :  7.92301e-03 Reference value :  8.16900e-03
No. of Data Rows : 323301
Note: Simulation executed from .control section 
