# ngspice simulation log: dynamic_spectrum.cir
Generated: 2026-06-05 18:18:39 UTC
Engine: ngspice behavioral netlist (reference: configurable_adc.va)
Netlist: /home/yongfu/proj/adc-model/outputs/ngspice/ngspice/dynamic_spectrum.cir
Includes: /home/yongfu/proj/adc-model/outputs/ngspice/ngspice/includes
Command: ngspice -b /home/yongfu/proj/adc-model/outputs/ngspice/ngspice/dynamic_spectrum.cir

Note: No compatibility mode selected!


Circuit: * dynamic spectrum testbench for configurable adc (ngspice behavioral)

Doing analysis at TEMP = 27.000000 and TNOM = 27.000000

Using SPARSE 1.3 as Direct Linear Solver

Initial Transient Solution
--------------------------

Node                                   Voltage
----                                   -------
vin                                        0.5
v_gain                                    0.51
v_nl                                      0.51
clk_int                                      0
bnonlin#branch                               0
bgain#branch                                 0
vclk#branch                                  0
vin#branch                                   0

 Reference value :  3.29014e-04 Reference value :  6.95001e-04 Reference value :  1.05100e-03 Reference value :  1.39800e-03 Reference value :  1.73401e-03 Reference value :  2.04200e-03 Reference value :  2.31600e-03 Reference value :  2.58550e-03 Reference value :  2.85023e-03 Reference value :  3.10600e-03 Reference value :  3.35650e-03 Reference value :  3.60600e-03 Reference value :  3.85000e-03 Reference value :  4.11750e-03 Reference value :  4.36953e-03 Reference value :  4.61450e-03 Reference value :  4.85501e-03 Reference value :  5.09200e-03 Reference value :  5.32300e-03 Reference value :  5.55001e-03 Reference value :  5.77350e-03 Reference value :  5.99200e-03 Reference value :  6.20650e-03 Reference value :  6.41450e-03 Reference value :  6.62200e-03 Reference value :  6.82500e-03 Reference value :  7.02450e-03 Reference value :  7.22200e-03 Reference value :  7.41850e-03 Reference value :  7.61061e-03 Reference value :  7.79600e-03 Reference value :  8.03603e-03
No. of Data Rows : 323301
Note: Simulation executed from .control section 
