# ngspice simulation log: static_inl_dnl.cir
Generated: 2026-06-05 18:02:27 UTC
Engine: ngspice behavioral netlist (reference: configurable_adc.va)
Netlist: /home/yongfu/proj/adc-model/outputs/ngspice/ngspice/static_inl_dnl.cir
Includes: /home/yongfu/proj/adc-model/outputs/ngspice/ngspice/includes
Command: ngspice -b /home/yongfu/proj/adc-model/outputs/ngspice/ngspice/static_inl_dnl.cir

Note: No compatibility mode selected!


Circuit: * static inl/dnl testbench for configurable adc (ngspice behavioral)

Doing analysis at TEMP = 27.000000 and TNOM = 27.000000

Using SPARSE 1.3 as Direct Linear Solver

Initial Transient Solution
--------------------------

Node                                   Voltage
----                                   -------
vin                                0.000488759
v_gain                              0.00549365
v_nl                                 0.0052518
clk_int                                      0
bnonlin#branch                               0
bgain#branch                                 0
vclk#branch                                  0
vin#branch                                   0

 Reference value :  3.03500e-04 Reference value :  6.65345e-04 Reference value :  1.02350e-03 Reference value :  1.36473e-03 Reference value :  1.69450e-03 Reference value :  2.00756e-03 Reference value :  2.27911e-03 Reference value :  2.54336e-03 Reference value :  2.80650e-03 Reference value :  3.06350e-03 Reference value :  3.31636e-03 Reference value :  3.55911e-03 Reference value :  3.80200e-03 Reference value :  4.06250e-03 Reference value :  4.32200e-03 Reference value :  4.56951e-03 Reference value :  4.81100e-03 Reference value :  5.04700e-03 Reference value :  5.27436e-03 Reference value :  5.50000e-03 Reference value :  5.71250e-03 Reference value :  5.92350e-03 Reference value :  6.13411e-03 Reference value :  6.34100e-03 Reference value :  6.54650e-03 Reference value :  6.74450e-03 Reference value :  6.93950e-03 Reference value :  7.13401e-03 Reference value :  7.32786e-03 Reference value :  7.51801e-03 Reference value :  7.70700e-03 Reference value :  7.91951e-03 Reference value :  8.16234e-03 Reference value :  8.37901e-03 Reference value :  8.58853e-03 Reference value :  8.79336e-03 Reference value :  8.99550e-03 Reference value :  9.19900e-03 Reference value :  9.40034e-03 Reference value :  9.60001e-03 Reference value :  9.80050e-03 Reference value :  9.99756e-03 Reference value :  1.01920e-02 Reference value :  1.03865e-02 Reference value :  1.05785e-02 Reference value :  1.07685e-02 Reference value :  1.09557e-02 Reference value :  1.11420e-02 Reference value :  1.13326e-02 Reference value :  1.15149e-02 Reference value :  1.16940e-02 Reference value :  1.18699e-02 Reference value :  1.20435e-02 Reference value :  1.22140e-02 Reference value :  1.23847e-02 Reference value :  1.25541e-02 Reference value :  1.27236e-02 Reference value :  1.28907e-02 Reference value :  1.30600e-02 Reference value :  1.32220e-02 Reference value :  1.33855e-02 Reference value :  1.35455e-02 Reference value :  1.37075e-02 Reference value :  1.38685e-02 Reference value :  1.40235e-02 Reference value :  1.41794e-02 Reference value :  1.43365e-02 Reference value :  1.44950e-02 Reference value :  1.46555e-02 Reference value :  1.48155e-02 Reference value :  1.49730e-02 Reference value :  1.51325e-02 Reference value :  1.52860e-02 Reference value :  1.54420e-02 Reference value :  1.55960e-02 Reference value :  1.57360e-02 Reference value :  1.58730e-02 Reference value :  1.60090e-02 Reference value :  1.61435e-02 Reference value :  1.62765e-02
No. of Data Rows : 618149
Note: Simulation executed from .control section 
