# ngspice simulation log: dynamic_spectrum.cir
Generated: 2026-06-07 15:15:35 UTC
Engine: ngspice behavioral netlist (reference: configurable_adc.va)
Netlist: /home/yongfu/proj/circuit-calibration/adc-calibration/model/adc-model/outputs/ngspice/ngspice/dynamic_spectrum.cir
Includes: /home/yongfu/proj/circuit-calibration/adc-calibration/model/adc-model/outputs/ngspice/ngspice/includes
Command: ngspice -b /home/yongfu/proj/circuit-calibration/adc-calibration/model/adc-model/outputs/ngspice/ngspice/dynamic_spectrum.cir

Note: No compatibility mode selected!


Circuit: * dynamic spectrum testbench for configurable adc (ngspice behavioral)

Doing analysis at TEMP = 27.000000 and TNOM = 27.000000

Using SPARSE 1.3 as Direct Linear Solver

Initial Transient Solution
--------------------------

Node                                   Voltage
----                                   -------
vin                                        0.5
v_gain                                    0.51
v_nl                                      0.51
clk_int                                      0
bnonlin#branch                               0
bgain#branch                                 0
vclk#branch                                  0
vin#branch                                   0

 Reference value :  3.18529e-04 Reference value :  6.70004e-04 Reference value :  1.01850e-03 Reference value :  1.35200e-03 Reference value :  1.67650e-03 Reference value :  1.98200e-03 Reference value :  2.24711e-03 Reference value :  2.50553e-03 Reference value :  2.75950e-03 Reference value :  3.00951e-03 Reference value :  3.25750e-03 Reference value :  3.49800e-03 Reference value :  3.73500e-03 Reference value :  3.97861e-03 Reference value :  4.23200e-03 Reference value :  4.47156e-03 Reference value :  4.70400e-03 Reference value :  4.93161e-03 Reference value :  5.15600e-03 Reference value :  5.37350e-03 Reference value :  5.59100e-03 Reference value :  5.79986e-03 Reference value :  5.99200e-03 Reference value :  6.19151e-03 Reference value :  6.39051e-03 Reference value :  6.58400e-03 Reference value :  6.77050e-03 Reference value :  6.95900e-03 Reference value :  7.14500e-03 Reference value :  7.32736e-03 Reference value :  7.50373e-03 Reference value :  7.68156e-03 Reference value :  7.86850e-03 Reference value :  8.09850e-03
No. of Data Rows : 323301
Note: Simulation executed from .control section 
