# ngspice simulation log: static_inl_dnl.cir
Generated: 2026-06-07 15:15:11 UTC
Engine: ngspice behavioral netlist (reference: configurable_adc.va)
Netlist: /home/yongfu/proj/circuit-calibration/adc-calibration/model/adc-model/outputs/ngspice/ngspice/static_inl_dnl.cir
Includes: /home/yongfu/proj/circuit-calibration/adc-calibration/model/adc-model/outputs/ngspice/ngspice/includes
Command: ngspice -b /home/yongfu/proj/circuit-calibration/adc-calibration/model/adc-model/outputs/ngspice/ngspice/static_inl_dnl.cir

Note: No compatibility mode selected!


Circuit: * static inl/dnl testbench for configurable adc (ngspice behavioral)

Doing analysis at TEMP = 27.000000 and TNOM = 27.000000

Using SPARSE 1.3 as Direct Linear Solver

Initial Transient Solution
--------------------------

Node                                   Voltage
----                                   -------
vin                                0.000488759
v_gain                              0.00549365
v_nl                                 0.0052518
clk_int                                      0
bnonlin#branch                               0
bgain#branch                                 0
vclk#branch                                  0
vin#branch                                   0

 Reference value :  3.05027e-04 Reference value :  6.61500e-04 Reference value :  1.01550e-03 Reference value :  1.35400e-03 Reference value :  1.68050e-03 Reference value :  1.98886e-03 Reference value :  2.25350e-03 Reference value :  2.51800e-03 Reference value :  2.77550e-03 Reference value :  3.02700e-03 Reference value :  3.27500e-03 Reference value :  3.51200e-03 Reference value :  3.75061e-03 Reference value :  3.99900e-03 Reference value :  4.25200e-03 Reference value :  4.48500e-03 Reference value :  4.71600e-03 Reference value :  4.94400e-03 Reference value :  5.17100e-03 Reference value :  5.38250e-03 Reference value :  5.59986e-03 Reference value :  5.81150e-03 Reference value :  6.01486e-03 Reference value :  6.21900e-03 Reference value :  6.41923e-03 Reference value :  6.60701e-03 Reference value :  6.80100e-03 Reference value :  6.99300e-03 Reference value :  7.18100e-03 Reference value :  7.36300e-03 Reference value :  7.54200e-03 Reference value :  7.71756e-03 Reference value :  7.92250e-03 Reference value :  8.15956e-03 Reference value :  8.37286e-03 Reference value :  8.57801e-03 Reference value :  8.78150e-03 Reference value :  8.98100e-03 Reference value :  9.17750e-03 Reference value :  9.37061e-03 Reference value :  9.56650e-03 Reference value :  9.75650e-03 Reference value :  9.94323e-03 Reference value :  1.01300e-02 Reference value :  1.03154e-02 Reference value :  1.04930e-02 Reference value :  1.06725e-02 Reference value :  1.08525e-02 Reference value :  1.10310e-02 Reference value :  1.11995e-02 Reference value :  1.13760e-02 Reference value :  1.15320e-02 Reference value :  1.17059e-02 Reference value :  1.18535e-02 Reference value :  1.20221e-02 Reference value :  1.21925e-02 Reference value :  1.23610e-02 Reference value :  1.25280e-02 Reference value :  1.26915e-02 Reference value :  1.28555e-02 Reference value :  1.30200e-02 Reference value :  1.31710e-02 Reference value :  1.33211e-02 Reference value :  1.34800e-02 Reference value :  1.36195e-02 Reference value :  1.37780e-02 Reference value :  1.39340e-02 Reference value :  1.40910e-02 Reference value :  1.42470e-02 Reference value :  1.44025e-02 Reference value :  1.45520e-02 Reference value :  1.47035e-02 Reference value :  1.48540e-02 Reference value :  1.50055e-02 Reference value :  1.51565e-02 Reference value :  1.53060e-02 Reference value :  1.54520e-02 Reference value :  1.56011e-02 Reference value :  1.57355e-02 Reference value :  1.58685e-02 Reference value :  1.59981e-02 Reference value :  1.61295e-02 Reference value :  1.62575e-02
No. of Data Rows : 618149
Note: Simulation executed from .control section 
