
Spectre (R) Circuit Simulator
Version 24.1.0.167.isr2 64bit -- 28 Nov 2024
Copyright (C) 1989-2024 Cadence Design Systems, Inc. All rights reserved worldwide. Cadence and Spectre are registered trademarks of Cadence Design Systems, Inc. All others are the property of their respective holders.

Includes RSA BSAFE(R) Cryptographic or Security Protocol Software from RSA Security, Inc.

User: yongfu   Host: river   HostID: 7F0100   PID: 4072792
Memory  available: 361.6112 GB  physical: 405.0724 GB
Linux   : Red Hat Enterprise Linux release 9.7 (Plow)
CPU Type: Intel(R) Xeon(R) CPU E5-2678 v3 @ 2.50GHz
All processors running at 2899.7 MHz
        Socket: Processors (Hyperthreaded Processor)
        0:       0 ( 24 ),  1 ( 25 ),  2 ( 26 ),  3 ( 27 ),  4 ( 28 )
                 5 ( 29 ),  6 ( 30 ),  7 ( 31 ),  8 ( 32 ),  9 ( 33 )
                10 ( 34 ), 11 ( 35 )
        1:      12 ( 36 ), 13 ( 37 ), 14 ( 38 ), 15 ( 39 ), 16 ( 40 )
                17 ( 41 ), 18 ( 42 ), 19 ( 43 ), 20 ( 44 ), 21 ( 45 )
                22 ( 46 ), 23 ( 47 )
        
System load averages (1min, 5min, 15min) : 110.5 %, 94.2 %, 79.5 %
Hyperthreading is enabled


Simulating `/home/yongfu/proj/adc-model/outputs/spectre/logs/netlists/dynamic_spectrum.scs' on river at 3:38:29 PM, Thur Jun 4, 2026 (process id: 4072792).
Current working directory: /home/yongfu/proj/adc-model/outputs/spectre/logs
Command line:
    /eda/cadence/SPECTRE241/tools/bin/spectre -64  \
        /home/yongfu/proj/adc-model/outputs/spectre/logs/netlists/dynamic_spectrum.scs  \
        -format nutascii -raw  \
        /home/yongfu/proj/adc-model/outputs/spectre/logs/dynamic_spectrum.nutascii

Licensing Information:
[15:38:29.080353] Configured Lic search path (24.01-s002): /eda/cadence/license.dat

Licensing Information:
[15:38:30.115882] Periodic Lic check successful

Loading /eda/cadence/SPECTRE241/tools.lnx86/cmi/lib/64bit/5.0/libinfineon_sh.so ...
Loading /eda/cadence/SPECTRE241/tools.lnx86/cmi/lib/64bit/5.0/libphilips_I_sh.so ...
Loading /eda/cadence/SPECTRE241/tools.lnx86/cmi/lib/64bit/5.0/libphilips_sh.so ...
Loading /eda/cadence/SPECTRE241/tools.lnx86/cmi/lib/64bit/5.0/libsparam_sh.so ...
Loading /eda/cadence/SPECTRE241/tools.lnx86/cmi/lib/64bit/5.0/libstmodels_sh.so ...
Reading file:  /home/yongfu/proj/adc-model/outputs/spectre/logs/netlists/dynamic_spectrum.scs
Reading file:  /eda/cadence/SPECTRE241/tools.lnx86/spectre/etc/configs/spectre.cfg
Reading file:  /home/yongfu/proj/adc-model/veriloga/configurable_adc.va
Reading file:  /eda/cadence/SPECTRE241/tools.lnx86/spectre/etc/ahdl/constants.vams
Reading file:  /eda/cadence/SPECTRE241/tools.lnx86/spectre/etc/ahdl/disciplines.vams

Notice from spectre during AHDL read-in.
    "/home/yongfu/proj/adc-model/veriloga/configurable_adc.va", line 16:  Module configurable_adc is a compact model. As a result, it has been optimized automatically for better performance. For more information on compact models, refer to the Cadence Verilog-A Language Reference manual.

Time for NDB Parsing: CPU = 262.605 ms, elapsed = 592.593 ms.
Time accumulated: CPU = 381.887 ms, elapsed = 592.595 ms.
Peak resident memory used = 194 Mbytes.

Created directory ./dynamic_spectrum.ahdlSimDB/ (775)
Created directory ./dynamic_spectrum.ahdlSimDB//8018326cd2bfed203e19955624c094e5.configurable_adc.ahdlcmi/ (775)
Created directory ./dynamic_spectrum.ahdlSimDB//8018326cd2bfed203e19955624c094e5.configurable_adc.ahdlcmi/Linux-64/ (775)

Warning from spectre during AHDL read-in.
    WARNING (VACOMP-2409): "/home/yongfu/proj/adc-model/veriloga/configurable_adc.va", line 43: A variable `dnl_offset' in compact module `configurable_adc' has not been assigned a value, and therefore, it has been processed as a hidden state variable. This may slow down the simulation. Assign a value to the variable before using it, or set the 'CDS_AHDL_IGNORE_HIDDEN_STATE' environment variable to YES to process all hidden state variables as non-hidden state variables for all Verilog-A modules. Alternatively, specify the (* ignore_hidden_state="all" *) attribute to process the hidden state variables as non-hidden state variables in the module.
    WARNING (VACOMP-2409): "/home/yongfu/proj/adc-model/veriloga/configurable_adc.va", line 45: A variable `vin_prev' in compact module `configurable_adc' has not been assigned a value, and therefore, it has been processed as a hidden state variable. This may slow down the simulation. Assign a value to the variable before using it, or set the 'CDS_AHDL_IGNORE_HIDDEN_STATE' environment variable to YES to process all hidden state variables as non-hidden state variables for all Verilog-A modules. Alternatively, specify the (* ignore_hidden_state="all" *) attribute to process the hidden state variables as non-hidden state variables in the module.
    WARNING (VACOMP-2409): "/home/yongfu/proj/adc-model/veriloga/configurable_adc.va", line 47: A variable `t_prev' in compact module `configurable_adc' has not been assigned a value, and therefore, it has been processed as a hidden state variable. This may slow down the simulation. Assign a value to the variable before using it, or set the 'CDS_AHDL_IGNORE_HIDDEN_STATE' environment variable to YES to process all hidden state variables as non-hidden state variables for all Verilog-A modules. Alternatively, specify the (* ignore_hidden_state="all" *) attribute to process the hidden state variables as non-hidden state variables in the module.
    WARNING (VACOMP-2409): "/home/yongfu/proj/adc-model/veriloga/configurable_adc.va", line 55: A variable `code_int' in compact module `configurable_adc' has not been assigned a value, and therefore, it has been processed as a hidden state variable. This may slow down the simulation. Assign a value to the variable before using it, or set the 'CDS_AHDL_IGNORE_HIDDEN_STATE' environment variable to YES to process all hidden state variables as non-hidden state variables for all Verilog-A modules. Alternatively, specify the (* ignore_hidden_state="all" *) attribute to process the hidden state variables as non-hidden state variables in the module.
    WARNING (VACOMP-2409): "/home/yongfu/proj/adc-model/veriloga/configurable_adc.va", line 62: A variable `rand_seed' in compact module `configurable_adc' has not been assigned a value, and therefore, it has been processed as a hidden state variable. This may slow down the simulation. Assign a value to the variable before using it, or set the 'CDS_AHDL_IGNORE_HIDDEN_STATE' environment variable to YES to process all hidden state variables as non-hidden state variables for all Verilog-A modules. Alternatively, specify the (* ignore_hidden_state="all" *) attribute to process the hidden state variables as non-hidden state variables in the module.
        Further occurrences of this warning will be suppressed.

Compiling ahdlcmi module library for configurable_adc.
Finished compilation in 5.75 s (elapsed) for configurable_adc.
Installed compiled interface for configurable_adc.
Time for Elaboration: CPU = 4.81159 s, elapsed = 5.9193 s.
Time accumulated: CPU = 5.19364 s, elapsed = 6.51207 s.
Peak resident memory used = 213 Mbytes.


Time for EDB Visiting: CPU = 2.005 ms, elapsed = 1.01209 ms.
Time accumulated: CPU = 5.19578 s, elapsed = 6.51322 s.
Peak resident memory used = 214 Mbytes.


Notice from spectre during topology check.
    Only one connection to node `v_code'.


Netlist title:
        // Dynamic spectrum testbench for configurable_adc (Cadence Spectre).


Global user options:

Scoped user options:

Circuit inventory:
              nodes 5
   configurable_adc 1     
            vsource 4     

Analysis and control statement inventory:
               tran 1     

Output statements:
             .probe 0     
           .measure 0     
               save 1     


Notice from spectre.
    1 warning suppressed.

Time for parsing: CPU = 3.919 ms, elapsed = 1.93405 ms.
Time accumulated: CPU = 5.19981 s, elapsed = 6.51526 s.
Peak resident memory used = 217 Mbytes.

~~~~~~~~~~~~~~~~~~~~~~
Pre-Simulation Summary
~~~~~~~~~~~~~~~~~~~~~~
~~~~~~~~~~~~~~~~~~~~~~

***************************************************
Transient Analysis `tran': time = (0 s -> 8.192 ms)
***************************************************
DC simulation time: CPU = 1.813 ms, elapsed = 921.011 us.
Important parameter values:
    start = 0 s
    outputstart = 0 s
    stop = 8.192 ms
    step = 8.192 us
    maxstep = 250 ns
    ic = all
    useprevic = no
    skipdc = no
    reltol = 1e-03
    abstol(V) = 1 uV
    abstol(I) = 1 pA
    temp = 27 C
    tnom = 27 C
    tempeffects = all
    errpreset = moderate
    method = traponly
    lteratio = 3.5
    relref = sigglobal
    cmin = 0 F
    gmin = 1 pS


Output and IC/nodeset summary:
                 save   3       (voltage)

......9......8......7......6......5......4......3......2......1......0
Number of accepted tran steps =             278492

Maximum value achieved for any signal of each quantity: 
V: V(vdd) = 1 V
I: I(VDD:p) = 0 A
If your circuit contains signals of the same quantity that are vastly different in size (such as high voltage circuitry combined with low voltage control circuitry), you should consider specifying global option `bin_relref=yes'.

~~~~~~~~~~~~~~~~~~~~~~~~~~~~~~~~~
Post-Transient Simulation Summary
~~~~~~~~~~~~~~~~~~~~~~~~~~~~~~~~~
   -   To further speed up simulation, consider
          add ++aps on command line
   -   Non-default settings that could significantly slow down simulation
          maxstep = 250 ns, default 163.84 us
~~~~~~~~~~~~~~~~~~~~~~~~~~~~~~~~~


During simulation, the CPU load for active processors is :
         0 (100.0 %)     1 (100.0 %)     2 (100.0 %)     3 (100.0 %)
         4 (100.0 %)     5 (100.0 %)     6 (100.0 %)     7 (100.0 %)
         8 (100.0 %)     9 (100.0 %)    10 (100.0 %)    11 (100.0 %)
        12 (100.0 %)    13 (100.0 %)    14 (100.0 %)    15 (100.0 %)
        16 (100.0 %)    17 (100.0 %)    18 (100.0 %)    19 (100.0 %)
        20 (100.0 %)    21 (100.0 %)    22 (100.0 %)    23 (100.0 %)
        24 (100.0 %)    25 (100.0 %)    26 (100.0 %)    27 (100.0 %)
        28 (100.0 %)    29 (100.0 %)    30 (100.0 %)    31 (100.0 %)
        32 (100.0 %)    33 (100.0 %)    34 (100.0 %)    35 (100.0 %)
        36 (100.0 %)    37 (100.0 %)    38 (100.0 %)    39 (100.0 %)
        40 (100.0 %)    41 (100.0 %)    42 (100.0 %)    43 (100.0 %)
        44 (100.0 %)    45 (100.0 %)    46 (100.0 %)    47 (100.0 %)
        Total: 4800.0%
Initial condition solution time: CPU = 1.877 ms, elapsed = 986.099 us.
Intrinsic tran analysis time:    CPU = 16.9905 s, elapsed = 16.3101 s.
Total time required for tran analysis `tran': CPU = 16.994 s, elapsed = 16.3117 s, util. = 104%.
Time accumulated: CPU = 22.2173 s, elapsed = 22.8496 s.
Peak resident memory used = 222 Mbytes.

Licensing Information:
Lic Summary:
[15:38:52.001264] cdslmd servers: /eda/cadence/license.dat
[15:38:52.016576] Feature usage summary:
[15:38:52.249439]   Virtuoso_Spectre  


Aggregate audit (3:38:52 PM, Thur Jun 4, 2026):
Time used: CPU = 22.2 s, elapsed = 22.9 s, util. = 97.2%.
Time spent in licensing: elapsed = 395 ms.
Peak memory used = 222 Mbytes.
Simulation started at: 3:38:29 PM, Thur Jun 4, 2026, ended at: 3:38:52 PM, Thur Jun 4, 2026, with elapsed time (wall clock): 22.9 s.
spectre completes with 0 errors, 5 warnings, and 4 notices.
