
Spectre (R) Circuit Simulator
Version 24.1.0.167.isr2 64bit -- 28 Nov 2024
Copyright (C) 1989-2024 Cadence Design Systems, Inc. All rights reserved worldwide. Cadence and Spectre are registered trademarks of Cadence Design Systems, Inc. All others are the property of their respective holders.

Includes RSA BSAFE(R) Cryptographic or Security Protocol Software from RSA Security, Inc.

User: yongfu   Host: river   HostID: 7F0100   PID: 62974
Memory  available: 358.2291 GB  physical: 405.0724 GB
Linux   : Red Hat Enterprise Linux release 9.7 (Plow)
CPU Type: Intel(R) Xeon(R) CPU E5-2678 v3 @ 2.50GHz
        Socket: Processors [Frequency] (Hyperthreaded Processor)
        0:       0 [3138.8] ( 24 ),  1 [3300.0] ( 25 ),  2 [3300.0] ( 26 )
                 3 [3215.1] ( 27 ),  4 [3093.0] ( 28 ),  5 [3300.0] ( 29 )
                 6 [3300.0] ( 30 ),  7 [3300.0] ( 31 ),  8 [3300.0] ( 32 )
                 9 [3300.0] ( 33 ), 10 [3300.0] ( 34 ), 11 [3300.0] ( 35 )
        1:      12 [3300.0] ( 36 ), 13 [3300.0] ( 37 ), 14 [3182.3] ( 38 )
                15 [3300.0] ( 39 ), 16 [3300.0] ( 40 ), 17 [3300.0] ( 41 )
                18 [3151.2] ( 42 ), 19 [3300.0] ( 43 ), 20 [3300.0] ( 44 )
                21 [3300.0] ( 45 ), 22 [3097.7] ( 46 ), 23 [3300.0] ( 47 )
        
System load averages (1min, 5min, 15min) : 14.3 %, 13.7 %, 11.5 %
Hyperthreading is enabled


Simulating `/home/yongfu/proj/adc-model/outputs/spectre/logs/netlists/dynamic_spectrum.scs' on river at 5:18:07 PM, Thur Jun 4, 2026 (process id: 62974).
Current working directory: /home/yongfu/proj/adc-model/outputs/spectre/logs
Command line:
    /eda/cadence/SPECTRE241/tools/bin/spectre -64  \
        /home/yongfu/proj/adc-model/outputs/spectre/logs/netlists/dynamic_spectrum.scs  \
        -format nutascii -raw  \
        /home/yongfu/proj/adc-model/outputs/spectre/logs/dynamic_spectrum.nutascii

Licensing Information:
[17:18:07.080321] Configured Lic search path (24.01-s002): /eda/cadence/license.dat

Licensing Information:
[17:18:07.190530] Periodic Lic check successful

Loading /eda/cadence/SPECTRE241/tools.lnx86/cmi/lib/64bit/5.0/libinfineon_sh.so ...
Loading /eda/cadence/SPECTRE241/tools.lnx86/cmi/lib/64bit/5.0/libphilips_I_sh.so ...
Loading /eda/cadence/SPECTRE241/tools.lnx86/cmi/lib/64bit/5.0/libphilips_sh.so ...
Loading /eda/cadence/SPECTRE241/tools.lnx86/cmi/lib/64bit/5.0/libsparam_sh.so ...
Loading /eda/cadence/SPECTRE241/tools.lnx86/cmi/lib/64bit/5.0/libstmodels_sh.so ...
Reading file:  /home/yongfu/proj/adc-model/outputs/spectre/logs/netlists/dynamic_spectrum.scs
Reading file:  /eda/cadence/SPECTRE241/tools.lnx86/spectre/etc/configs/spectre.cfg
Reading file:  /home/yongfu/proj/adc-model/veriloga/configurable_adc.va
Reading file:  /eda/cadence/SPECTRE241/tools.lnx86/spectre/etc/ahdl/constants.vams
Reading file:  /eda/cadence/SPECTRE241/tools.lnx86/spectre/etc/ahdl/disciplines.vams

Notice from spectre during AHDL read-in.
    "/home/yongfu/proj/adc-model/veriloga/configurable_adc.va", line 16:  Module configurable_adc is a compact model. As a result, it has been optimized automatically for better performance. For more information on compact models, refer to the Cadence Verilog-A Language Reference manual.

Time for NDB Parsing: CPU = 210.789 ms, elapsed = 392.608 ms.
Time accumulated: CPU = 299.968 ms, elapsed = 392.61 ms.
Peak resident memory used = 193 Mbytes.

Created directory ./dynamic_spectrum.ahdlSimDB/ (775)
Created directory ./dynamic_spectrum.ahdlSimDB//8018326cd2bfed203e19955624c094e5.configurable_adc.ahdlcmi/ (775)
Created directory ./dynamic_spectrum.ahdlSimDB//8018326cd2bfed203e19955624c094e5.configurable_adc.ahdlcmi/Linux-64/ (775)

Warning from spectre during AHDL read-in.
    WARNING (VACOMP-2409): "/home/yongfu/proj/adc-model/veriloga/configurable_adc.va", line 43: A variable `dnl_offset' in compact module `configurable_adc' has not been assigned a value, and therefore, it has been processed as a hidden state variable. This may slow down the simulation. Assign a value to the variable before using it, or set the 'CDS_AHDL_IGNORE_HIDDEN_STATE' environment variable to YES to process all hidden state variables as non-hidden state variables for all Verilog-A modules. Alternatively, specify the (* ignore_hidden_state="all" *) attribute to process the hidden state variables as non-hidden state variables in the module.
    WARNING (VACOMP-2409): "/home/yongfu/proj/adc-model/veriloga/configurable_adc.va", line 45: A variable `vin_prev' in compact module `configurable_adc' has not been assigned a value, and therefore, it has been processed as a hidden state variable. This may slow down the simulation. Assign a value to the variable before using it, or set the 'CDS_AHDL_IGNORE_HIDDEN_STATE' environment variable to YES to process all hidden state variables as non-hidden state variables for all Verilog-A modules. Alternatively, specify the (* ignore_hidden_state="all" *) attribute to process the hidden state variables as non-hidden state variables in the module.
    WARNING (VACOMP-2409): "/home/yongfu/proj/adc-model/veriloga/configurable_adc.va", line 47: A variable `t_prev' in compact module `configurable_adc' has not been assigned a value, and therefore, it has been processed as a hidden state variable. This may slow down the simulation. Assign a value to the variable before using it, or set the 'CDS_AHDL_IGNORE_HIDDEN_STATE' environment variable to YES to process all hidden state variables as non-hidden state variables for all Verilog-A modules. Alternatively, specify the (* ignore_hidden_state="all" *) attribute to process the hidden state variables as non-hidden state variables in the module.
    WARNING (VACOMP-2409): "/home/yongfu/proj/adc-model/veriloga/configurable_adc.va", line 55: A variable `code_int' in compact module `configurable_adc' has not been assigned a value, and therefore, it has been processed as a hidden state variable. This may slow down the simulation. Assign a value to the variable before using it, or set the 'CDS_AHDL_IGNORE_HIDDEN_STATE' environment variable to YES to process all hidden state variables as non-hidden state variables for all Verilog-A modules. Alternatively, specify the (* ignore_hidden_state="all" *) attribute to process the hidden state variables as non-hidden state variables in the module.
    WARNING (VACOMP-2409): "/home/yongfu/proj/adc-model/veriloga/configurable_adc.va", line 62: A variable `rand_seed' in compact module `configurable_adc' has not been assigned a value, and therefore, it has been processed as a hidden state variable. This may slow down the simulation. Assign a value to the variable before using it, or set the 'CDS_AHDL_IGNORE_HIDDEN_STATE' environment variable to YES to process all hidden state variables as non-hidden state variables for all Verilog-A modules. Alternatively, specify the (* ignore_hidden_state="all" *) attribute to process the hidden state variables as non-hidden state variables in the module.
        Further occurrences of this warning will be suppressed.

Compiling ahdlcmi module library for configurable_adc.
Finished compilation in 2.14 s (elapsed) for configurable_adc.
Installed compiled interface for configurable_adc.
Time for Elaboration: CPU = 2.27998 s, elapsed = 2.21503 s.
Time accumulated: CPU = 2.58005 s, elapsed = 2.60774 s.
Peak resident memory used = 212 Mbytes.


Time for EDB Visiting: CPU = 1.796 ms, elapsed = 803.947 us.
Time accumulated: CPU = 2.58195 s, elapsed = 2.60865 s.
Peak resident memory used = 213 Mbytes.


Notice from spectre during topology check.
    Only one connection to node `v_code'.


Netlist title:
        // Dynamic spectrum testbench for configurable_adc (Cadence Spectre).


Global user options:

Scoped user options:

Circuit inventory:
              nodes 5
   configurable_adc 1     
            vsource 4     

Analysis and control statement inventory:
               tran 1     

Output statements:
             .probe 0     
           .measure 0     
               save 1     


Notice from spectre.
    1 warning suppressed.

Time for parsing: CPU = 3.498 ms, elapsed = 1.51801 ms.
Time accumulated: CPU = 2.58553 s, elapsed = 2.61024 s.
Peak resident memory used = 216 Mbytes.

~~~~~~~~~~~~~~~~~~~~~~
Pre-Simulation Summary
~~~~~~~~~~~~~~~~~~~~~~
~~~~~~~~~~~~~~~~~~~~~~

***************************************************
Transient Analysis `tran': time = (0 s -> 8.192 ms)
***************************************************
DC simulation time: CPU = 642 us, elapsed = 643.015 us.
Important parameter values:
    start = 0 s
    outputstart = 0 s
    stop = 8.192 ms
    step = 8.192 us
    maxstep = 250 ns
    ic = all
    useprevic = no
    skipdc = no
    reltol = 1e-03
    abstol(V) = 1 uV
    abstol(I) = 1 pA
    temp = 27 C
    tnom = 27 C
    tempeffects = all
    errpreset = moderate
    method = traponly
    lteratio = 3.5
    relref = sigglobal
    cmin = 0 F
    gmin = 1 pS


Output and IC/nodeset summary:
                 save   3       (voltage)

......9......8......7......6......5......4......3......2......1......0
Number of accepted tran steps =             278492

Maximum value achieved for any signal of each quantity: 
V: V(vdd) = 1 V
I: I(VDD:p) = 0 A
If your circuit contains signals of the same quantity that are vastly different in size (such as high voltage circuitry combined with low voltage control circuitry), you should consider specifying global option `bin_relref=yes'.

~~~~~~~~~~~~~~~~~~~~~~~~~~~~~~~~~
Post-Transient Simulation Summary
~~~~~~~~~~~~~~~~~~~~~~~~~~~~~~~~~
   -   To further speed up simulation, consider
          add ++aps on command line
   -   Non-default settings that could significantly slow down simulation
          maxstep = 250 ns, default 163.84 us
~~~~~~~~~~~~~~~~~~~~~~~~~~~~~~~~~


During simulation, the CPU load for active processors is :
         0 (7.1 %)       1 (35.2 %)      2 (5.3 %)       3 (98.7 %)
         4 (5.9 %)       5 (5.6 %)       6 (6.1 %)       7 (6.0 %)
         8 (5.2 %)       9 (6.1 %)      10 (4.0 %)      11 (4.1 %)
        12 (6.5 %)      13 (7.9 %)      14 (6.4 %)      15 (4.0 %)
        16 (4.4 %)      17 (6.4 %)      18 (23.3 %)     19 (5.0 %)
        20 (5.5 %)      21 (5.0 %)      22 (6.0 %)      23 (5.1 %)
        24 (100.0 %)    25 (7.5 %)      26 (3.8 %)      27 (4.6 %)
        28 (4.5 %)      29 (3.4 %)      30 (4.6 %)      31 (5.7 %)
        32 (3.8 %)      33 (4.2 %)      34 (3.8 %)      35 (4.0 %)
        36 (4.0 %)      37 (5.4 %)      38 (9.5 %)      39 (5.0 %)
        40 (4.3 %)      41 (4.6 %)      42 (81.1 %)     43 (6.1 %)
        44 (5.2 %)      45 (5.3 %)      46 (80.9 %)     47 (13.7 %)
        Total: 649.7%
Initial condition solution time: CPU = 704 us, elapsed = 705.957 us.
Intrinsic tran analysis time:    CPU = 13.4201 s, elapsed = 11.2474 s.
Total time required for tran analysis `tran': CPU = 13.4231 s, elapsed = 11.2486 s, util. = 119%.
Time accumulated: CPU = 16.0203 s, elapsed = 13.8705 s.
Peak resident memory used = 220 Mbytes.

Licensing Information:
Lic Summary:
[17:18:21.001232] cdslmd servers: /eda/cadence/license.dat
[17:18:21.016544] Feature usage summary:
[17:18:21.249407]   Virtuoso_Spectre  


Aggregate audit (5:18:21 PM, Thur Jun 4, 2026):
Time used: CPU = 16 s, elapsed = 16 s, util. = 100%.
Time spent in licensing: elapsed = 255 ms.
Peak memory used = 220 Mbytes.
Simulation started at: 5:18:07 PM, Thur Jun 4, 2026, ended at: 5:18:21 PM, Thur Jun 4, 2026, with elapsed time (wall clock): 16 s.
spectre completes with 0 errors, 5 warnings, and 4 notices.
