
Spectre (R) Circuit Simulator
Version 24.1.0.167.isr2 64bit -- 28 Nov 2024
Copyright (C) 1989-2024 Cadence Design Systems, Inc. All rights reserved worldwide. Cadence and Spectre are registered trademarks of Cadence Design Systems, Inc. All others are the property of their respective holders.

Includes RSA BSAFE(R) Cryptographic or Security Protocol Software from RSA Security, Inc.

User: yongfu   Host: river   HostID: 7F0100   PID: 280117
Memory  available: 335.6766 GB  physical: 405.0724 GB
Linux   : Red Hat Enterprise Linux release 9.7 (Plow)
CPU Type: Intel(R) Xeon(R) CPU E5-2678 v3 @ 2.50GHz
        Socket: Processors [Frequency] (Hyperthreaded Processor)
        0:       0 [2899.7] ( 24 ),  1 [2900.0] ( 25 ),  2 [2903.9] ( 26 )
                 3 [3300.0] ( 27 ),  4 [2904.4] ( 28 ),  5 [2899.7] ( 29 )
                 6 [2900.2] ( 30 ),  7 [2900.6] ( 31 ),  8 [2900.6] ( 32 )
                 9 [2919.6] ( 33 ), 10 [3300.0] ( 34 ), 11 [2899.7] ( 35 )
        1:      12 [3300.0] ( 36 ), 13 [3300.0] ( 37 ), 14 [3300.0] ( 38 )
                15 [2899.7] ( 39 ), 16 [2899.5] ( 40 ), 17 [3300.0] ( 41 )
                18 [3300.0] ( 42 ), 19 [3300.0] ( 43 ), 20 [2899.8] ( 44 )
                21 [2907.6] ( 45 ), 22 [3300.0] ( 46 ), 23 [3300.0] ( 47 )
        
System load averages (1min, 5min, 15min) : 13.8 %, 36.9 %, 71.7 %
Hyperthreading is enabled


Simulating `/home/yongfu/proj/adc-calibration/model/adc-model/outputs/spectre/logs/netlists/dynamic_spectrum.scs' on river at 7:17:27 PM, Thur Jun 4, 2026 (process id: 280117).
Current working directory: /home/yongfu/proj/adc-calibration/model/adc-model/outputs/spectre/logs
Command line:
    /eda/cadence/SPECTRE241/tools/bin/spectre -64  \
        /home/yongfu/proj/adc-calibration/model/adc-model/outputs/spectre/logs/netlists/dynamic_spectrum.scs  \
        -format nutascii -raw  \
        /home/yongfu/proj/adc-calibration/model/adc-model/outputs/spectre/logs/dynamic_spectrum.nutascii

Licensing Information:
[19:17:27.080345] Configured Lic search path (24.01-s002): /eda/cadence/license.dat

Licensing Information:
[19:17:28.129368] Periodic Lic check successful

Loading /eda/cadence/SPECTRE241/tools.lnx86/cmi/lib/64bit/5.0/libinfineon_sh.so ...
Loading /eda/cadence/SPECTRE241/tools.lnx86/cmi/lib/64bit/5.0/libphilips_I_sh.so ...
Loading /eda/cadence/SPECTRE241/tools.lnx86/cmi/lib/64bit/5.0/libphilips_sh.so ...
Loading /eda/cadence/SPECTRE241/tools.lnx86/cmi/lib/64bit/5.0/libsparam_sh.so ...
Loading /eda/cadence/SPECTRE241/tools.lnx86/cmi/lib/64bit/5.0/libstmodels_sh.so ...
Reading file:  /home/yongfu/proj/adc-calibration/model/adc-model/outputs/spectre/logs/netlists/dynamic_spectrum.scs
Reading file:  /eda/cadence/SPECTRE241/tools.lnx86/spectre/etc/configs/spectre.cfg
Reading file:  /home/yongfu/proj/adc-calibration/model/adc-model/veriloga/configurable_adc.va
Reading file:  /eda/cadence/SPECTRE241/tools.lnx86/spectre/etc/ahdl/constants.vams
Reading file:  /eda/cadence/SPECTRE241/tools.lnx86/spectre/etc/ahdl/disciplines.vams
Time for NDB Parsing: CPU = 179.129 ms, elapsed = 385.163 ms.
Time accumulated: CPU = 274.986 ms, elapsed = 385.165 ms.
Peak resident memory used = 189 Mbytes.

Existing shared object for module configurable_adc is up to date.
Installed compiled interface for configurable_adc.
Time for Elaboration: CPU = 37.16 ms, elapsed = 18.2838 ms.
Time accumulated: CPU = 312.26 ms, elapsed = 403.562 ms.
Peak resident memory used = 199 Mbytes.


Time for EDB Visiting: CPU = 544 us, elapsed = 544.786 us.
Time accumulated: CPU = 312.926 ms, elapsed = 404.227 ms.
Peak resident memory used = 200 Mbytes.


Notice from spectre during topology check.
    Only one connection to node `v_code'.


Netlist title:
        // Dynamic spectrum testbench for configurable_adc (Cadence Spectre).


Global user options:

Scoped user options:

Circuit inventory:
              nodes 5
   configurable_adc 1     
            vsource 4     

Analysis and control statement inventory:
               tran 1     

Output statements:
             .probe 0     
           .measure 0     
               save 1     

Time for parsing: CPU = 5.401 ms, elapsed = 2.41899 ms.
Time accumulated: CPU = 318.411 ms, elapsed = 406.729 ms.
Peak resident memory used = 203 Mbytes.

~~~~~~~~~~~~~~~~~~~~~~
Pre-Simulation Summary
~~~~~~~~~~~~~~~~~~~~~~
~~~~~~~~~~~~~~~~~~~~~~

***************************************************
Transient Analysis `tran': time = (0 s -> 8.192 ms)
***************************************************
DC simulation time: CPU = 1.625 ms, elapsed = 633.955 us.
Important parameter values:
    start = 0 s
    outputstart = 0 s
    stop = 8.192 ms
    step = 8.192 us
    maxstep = 250 ns
    ic = all
    useprevic = no
    skipdc = no
    reltol = 1e-03
    abstol(V) = 1 uV
    abstol(I) = 1 pA
    temp = 27 C
    tnom = 27 C
    tempeffects = all
    errpreset = moderate
    method = traponly
    lteratio = 3.5
    relref = sigglobal
    cmin = 0 F
    gmin = 1 pS


Output and IC/nodeset summary:
                 save   3       (voltage)

......9......8......7......6......5......4......3......2......1......0
Number of accepted tran steps =             278492

Maximum value achieved for any signal of each quantity: 
V: V(vdd) = 1 V
I: I(VDD:p) = 0 A
If your circuit contains signals of the same quantity that are vastly different in size (such as high voltage circuitry combined with low voltage control circuitry), you should consider specifying global option `bin_relref=yes'.

~~~~~~~~~~~~~~~~~~~~~~~~~~~~~~~~~
Post-Transient Simulation Summary
~~~~~~~~~~~~~~~~~~~~~~~~~~~~~~~~~
   -   To further speed up simulation, consider
          add ++aps on command line
   -   Non-default settings that could significantly slow down simulation
          maxstep = 250 ns, default 163.84 us
~~~~~~~~~~~~~~~~~~~~~~~~~~~~~~~~~


During simulation, the CPU load for active processors is :
         0 (5.5 %)       1 (1.7 %)       2 (1.6 %)       3 (1.2 %)
         4 (1.3 %)       5 (1.9 %)       6 (2.7 %)       7 (19.4 %)
         8 (1.8 %)       9 (1.7 %)      10 (1.5 %)      11 (100.0 %)
        12 (1.0 %)      13 (2.3 %)      14 (2.1 %)      15 (2.5 %)
        16 (83.0 %)     17 (3.0 %)      18 (11.5 %)     19 (1.2 %)
        20 (1.7 %)      21 (1.5 %)      22 (17.7 %)     23 (3.7 %)
        24 (1.6 %)      25 (100.0 %)    26 (1.2 %)      27 (1.8 %)
        28 (1.5 %)      29 (2.5 %)      30 (3.3 %)      31 (23.1 %)
        32 (1.6 %)      33 (2.8 %)      34 (1.9 %)      35 (1.0 %)
        36 (100.0 %)    37 (2.4 %)      38 (2.0 %)      39 (1.8 %)
        40 (2.0 %)      41 (97.8 %)     42 (11.6 %)     43 (4.1 %)
        44 (1.9 %)      45 (2.8 %)      46 (1.8 %)      47 (3.8 %)
        Total: 645.7%
Initial condition solution time: CPU = 1.671 ms, elapsed = 679.97 us.
Intrinsic tran analysis time:    CPU = 14.9694 s, elapsed = 10.526 s.
Total time required for tran analysis `tran': CPU = 14.9716 s, elapsed = 10.5271 s, util. = 142%.
Time accumulated: CPU = 15.3013 s, elapsed = 10.9452 s.
Peak resident memory used = 212 Mbytes.

Licensing Information:
Lic Summary:
[19:17:38.001304] cdslmd servers: /eda/cadence/license.dat
[19:17:38.016616] Feature usage summary:
[19:17:38.249479]   Virtuoso_Spectre  


Aggregate audit (7:17:38 PM, Thur Jun 4, 2026):
Time used: CPU = 15.3 s, elapsed = 15.3 s, util. = 100%.
Time spent in licensing: elapsed = 259 ms.
Peak memory used = 212 Mbytes.
Simulation started at: 7:17:27 PM, Thur Jun 4, 2026, ended at: 7:17:38 PM, Thur Jun 4, 2026, with elapsed time (wall clock): 15.3 s.
spectre completes with 0 errors, 0 warnings, and 2 notices.
