
Spectre (R) Circuit Simulator
Version 24.1.0.167.isr2 64bit -- 28 Nov 2024
Copyright (C) 1989-2024 Cadence Design Systems, Inc. All rights reserved worldwide. Cadence and Spectre are registered trademarks of Cadence Design Systems, Inc. All others are the property of their respective holders.

Includes RSA BSAFE(R) Cryptographic or Security Protocol Software from RSA Security, Inc.

User: yongfu   Host: river   HostID: 7F0100   PID: 148265
Memory  available: 347.2428 GB  physical: 405.0724 GB
Linux   : Red Hat Enterprise Linux release 9.7 (Plow)
CPU Type: Intel(R) Xeon(R) CPU E5-2678 v3 @ 2.50GHz
All processors running at 2899.7 MHz
        Socket: Processors (Hyperthreaded Processor)
        0:       0 ( 24 ),  1 ( 25 ),  2 ( 26 ),  3 ( 27 ),  4 ( 28 )
                 5 ( 29 ),  6 ( 30 ),  7 ( 31 ),  8 ( 32 ),  9 ( 33 )
                10 ( 34 ), 11 ( 35 )
        1:      12 ( 36 ), 13 ( 37 ), 14 ( 38 ), 15 ( 39 ), 16 ( 40 )
                17 ( 41 ), 18 ( 42 ), 19 ( 43 ), 20 ( 44 ), 21 ( 45 )
                22 ( 46 ), 23 ( 47 )
        
System load averages (1min, 5min, 15min) : 100.8 %, 54.8 %, 55.3 %
Hyperthreading is enabled


Simulating `/home/yongfu/proj/adc-model/outputs/spectre/logs/netlists/dynamic_spectrum.scs' on river at 5:59:46 PM, Thur Jun 4, 2026 (process id: 148265).
Current working directory: /home/yongfu/proj/adc-model/outputs/spectre/logs
Command line:
    /eda/cadence/SPECTRE241/tools/bin/spectre -64  \
        /home/yongfu/proj/adc-model/outputs/spectre/logs/netlists/dynamic_spectrum.scs  \
        -format nutascii -raw  \
        /home/yongfu/proj/adc-model/outputs/spectre/logs/dynamic_spectrum.nutascii

Licensing Information:
[17:59:46.080385] Configured Lic search path (24.01-s002): /eda/cadence/license.dat

Licensing Information:
[17:59:47.364841] Periodic Lic check successful

Loading /eda/cadence/SPECTRE241/tools.lnx86/cmi/lib/64bit/5.0/libinfineon_sh.so ...
Loading /eda/cadence/SPECTRE241/tools.lnx86/cmi/lib/64bit/5.0/libphilips_I_sh.so ...
Loading /eda/cadence/SPECTRE241/tools.lnx86/cmi/lib/64bit/5.0/libphilips_sh.so ...
Loading /eda/cadence/SPECTRE241/tools.lnx86/cmi/lib/64bit/5.0/libsparam_sh.so ...
Loading /eda/cadence/SPECTRE241/tools.lnx86/cmi/lib/64bit/5.0/libstmodels_sh.so ...
Reading file:  /home/yongfu/proj/adc-model/outputs/spectre/logs/netlists/dynamic_spectrum.scs
Reading file:  /eda/cadence/SPECTRE241/tools.lnx86/spectre/etc/configs/spectre.cfg
Reading file:  /home/yongfu/proj/adc-model/veriloga/configurable_adc.va
Reading file:  /eda/cadence/SPECTRE241/tools.lnx86/spectre/etc/ahdl/constants.vams
Reading file:  /eda/cadence/SPECTRE241/tools.lnx86/spectre/etc/ahdl/disciplines.vams
Time for NDB Parsing: CPU = 309.97 ms, elapsed = 698.346 ms.
Time accumulated: CPU = 477.234 ms, elapsed = 698.348 ms.
Peak resident memory used = 187 Mbytes.

Existing shared object for module configurable_adc is up to date.
Installed compiled interface for configurable_adc.
Time for Elaboration: CPU = 56.662 ms, elapsed = 35.744 ms.
Time accumulated: CPU = 534.02 ms, elapsed = 734.214 ms.
Peak resident memory used = 197 Mbytes.


Time for EDB Visiting: CPU = 1.466 ms, elapsed = 645.876 us.
Time accumulated: CPU = 535.63 ms, elapsed = 735.002 ms.
Peak resident memory used = 198 Mbytes.


Notice from spectre during topology check.
    Only one connection to node `v_code'.


Netlist title:
        // Dynamic spectrum testbench for configurable_adc (Cadence Spectre).


Global user options:

Scoped user options:

Circuit inventory:
              nodes 5
   configurable_adc 1     
            vsource 4     

Analysis and control statement inventory:
               tran 1     

Output statements:
             .probe 0     
           .measure 0     
               save 1     

Time for parsing: CPU = 28.449 ms, elapsed = 25.4102 ms.
Time accumulated: CPU = 564.188 ms, elapsed = 760.52 ms.
Peak resident memory used = 201 Mbytes.

~~~~~~~~~~~~~~~~~~~~~~
Pre-Simulation Summary
~~~~~~~~~~~~~~~~~~~~~~
~~~~~~~~~~~~~~~~~~~~~~

***************************************************
Transient Analysis `tran': time = (0 s -> 8.192 ms)
***************************************************
DC simulation time: CPU = 2.026 ms, elapsed = 1.10698 ms.
Important parameter values:
    start = 0 s
    outputstart = 0 s
    stop = 8.192 ms
    step = 8.192 us
    maxstep = 250 ns
    ic = all
    useprevic = no
    skipdc = no
    reltol = 1e-03
    abstol(V) = 1 uV
    abstol(I) = 1 pA
    temp = 27 C
    tnom = 27 C
    tempeffects = all
    errpreset = moderate
    method = traponly
    lteratio = 3.5
    relref = sigglobal
    cmin = 0 F
    gmin = 1 pS


Output and IC/nodeset summary:
                 save   3       (voltage)

......9......8......7......6......5......4......3......2......1......0
Number of accepted tran steps =             278492

Maximum value achieved for any signal of each quantity: 
V: V(vdd) = 1 V
I: I(VDD:p) = 0 A
If your circuit contains signals of the same quantity that are vastly different in size (such as high voltage circuitry combined with low voltage control circuitry), you should consider specifying global option `bin_relref=yes'.

~~~~~~~~~~~~~~~~~~~~~~~~~~~~~~~~~
Post-Transient Simulation Summary
~~~~~~~~~~~~~~~~~~~~~~~~~~~~~~~~~
   -   To further speed up simulation, consider
          add ++aps on command line
   -   Non-default settings that could significantly slow down simulation
          maxstep = 250 ns, default 163.84 us
~~~~~~~~~~~~~~~~~~~~~~~~~~~~~~~~~


During simulation, the CPU load for active processors is :
         0 (99.8 %)      1 (99.4 %)      2 (99.5 %)      3 (99.7 %)
         4 (99.5 %)      5 (99.3 %)      6 (99.7 %)      7 (99.9 %)
         8 (99.6 %)      9 (99.3 %)     10 (99.2 %)     11 (99.9 %)
        12 (100.0 %)    13 (99.8 %)     14 (100.0 %)    15 (100.0 %)
        16 (100.0 %)    17 (100.0 %)    18 (99.8 %)     19 (100.0 %)
        20 (100.0 %)    21 (100.0 %)    22 (99.9 %)     23 (99.9 %)
        24 (99.1 %)     25 (99.8 %)     26 (99.0 %)     27 (99.6 %)
        28 (99.7 %)     29 (99.3 %)     30 (99.4 %)     31 (99.3 %)
        32 (99.3 %)     33 (99.2 %)     34 (99.5 %)     35 (99.6 %)
        36 (98.8 %)     37 (100.0 %)    38 (99.7 %)     39 (99.8 %)
        40 (100.0 %)    41 (100.0 %)    42 (99.9 %)     43 (100.0 %)
        44 (100.0 %)    45 (100.0 %)    46 (100.0 %)    47 (100.0 %)
        Total: 4785.3%
Initial condition solution time: CPU = 2.097 ms, elapsed = 1.17803 ms.
Intrinsic tran analysis time:    CPU = 24.7839 s, elapsed = 18.1844 s.
Total time required for tran analysis `tran': CPU = 24.7876 s, elapsed = 18.1862 s, util. = 136%.
Time accumulated: CPU = 25.3716 s, elapsed = 18.9656 s.
Peak resident memory used = 210 Mbytes.

Licensing Information:
Lic Summary:
[18:00:05.001184] cdslmd servers: /eda/cadence/license.dat
[18:00:05.016496] Feature usage summary:
[18:00:05.249359]   Virtuoso_Spectre  


Aggregate audit (6:00:05 PM, Thur Jun 4, 2026):
Time used: CPU = 25.4 s, elapsed = 25.4 s, util. = 100%.
Time spent in licensing: elapsed = 408 ms.
Peak memory used = 210 Mbytes.
Simulation started at: 5:59:46 PM, Thur Jun 4, 2026, ended at: 6:00:05 PM, Thur Jun 4, 2026, with elapsed time (wall clock): 25.4 s.
spectre completes with 0 errors, 0 warnings, and 2 notices.
