# Spectre simulation log: dynamic_spectrum.scs
Generated: 2026-06-05 18:05:22 UTC
Spectre run directory: /home/yongfu/proj/adc-model/outputs/spectre/logs
Command: spectre /home/yongfu/proj/adc-model/outputs/spectre/logs/netlists/dynamic_spectrum.scs -format nutascii -raw /home/yongfu/proj/adc-model/outputs/spectre/logs/dynamic_spectrum.nutascii
Raw output: /home/yongfu/proj/adc-model/outputs/spectre/logs/dynamic_spectrum.nutascii

Spectre (R) Circuit Simulator
Version 24.1.0.167.isr2 64bit -- 28 Nov 2024
Copyright (C) 1989-2024 Cadence Design Systems, Inc. All rights reserved
        worldwide. Cadence and Spectre are registered trademarks of Cadence
        Design Systems, Inc. All others are the property of their respective
        holders.

Includes RSA BSAFE(R) Cryptographic or Security Protocol Software from RSA
        Security, Inc.

User: yongfu   Host: river   HostID: 7F0100   PID: 3170554
Memory  available: 357.5879 GB  physical: 405.0724 GB
Linux   : Red Hat Enterprise Linux release 9.7 (Plow)
CPU Type: Intel(R) Xeon(R) CPU E5-2678 v3 @ 2.50GHz
        Socket: Processors [Frequency] (Hyperthreaded Processor)
        0:       0 [2901.0] ( 24 ),  1 [2900.1] ( 25 ),  2 [2911.7] ( 26 )
                 3 [3030.0] ( 27 ),  4 [2909.4] ( 28 ),  5 [3300.0] ( 29 )
                 6 [3300.0] ( 30 ),  7 [3300.0] ( 31 ),  8 [3005.1] ( 32 )
                 9 [3300.0] ( 33 ), 10 [3300.0] ( 34 ), 11 [3300.0] ( 35 )
        1:      12 [3122.8] ( 36 ), 13 [3300.0] ( 37 ), 14 [3300.0] ( 38 )
                15 [3300.0] ( 39 ), 16 [3300.0] ( 40 ), 17 [3299.1] ( 41 )
                18 [3300.0] ( 42 ), 19 [3300.0] ( 43 ), 20 [3300.0] ( 44 )
                21 [3204.3] ( 45 ), 22 [3300.0] ( 46 ), 23 [3300.0] ( 47 )
        
System load averages (1min, 5min, 15min) : 9.1 %, 8.9 %, 7.6 %
Hyperthreading is enabled


Simulating
        `/home/yongfu/proj/adc-model/outputs/spectre/logs/netlists/dynamic_spectrum.scs'
        on river at 2:05:22 AM, Sat Jun 6, 2026 (process id: 3170554).
Current working directory: /home/yongfu/proj/adc-model/outputs/spectre/logs
Command line:
    /eda/cadence/SPECTRE241/tools/bin/spectre -64  \
        /home/yongfu/proj/adc-model/outputs/spectre/logs/netlists/dynamic_spectrum.scs
        \
        -format nutascii -raw  \
       
        /home/yongfu/proj/adc-model/outputs/spectre/logs/dynamic_spectrum.nutascii
Licensing Information:
[02:05:22.080217] Configured Lic search path (24.01-s002):
        /eda/cadence/license.dat

Licensing Information:
[02:05:22.264618] Periodic Lic check successful

Reading file: 
        /home/yongfu/proj/adc-model/outputs/spectre/logs/netlists/dynamic_spectrum.scs
Reading file: 
        /eda/cadence/SPECTRE241/tools.lnx86/spectre/etc/configs/spectre.cfg
Reading file: 
        /home/yongfu/proj/adc-model/outputs/spectre/logs/netlists/configurable_adc.va
Reading file: 
        /eda/cadence/SPECTRE241/tools.lnx86/spectre/etc/ahdl/constants.vams
Reading file: 
        /eda/cadence/SPECTRE241/tools.lnx86/spectre/etc/ahdl/disciplines.vams
Reading file: 
        /home/yongfu/proj/adc-model/outputs/spectre/logs/netlists/dnl_profile.inc
Reading file: 
        /home/yongfu/proj/adc-model/outputs/spectre/logs/netlists/edge_noise.inc

Notice from spectre during AHDL read-in.
    "/home/yongfu/proj/adc-model/outputs/spectre/logs/netlists/configurable_adc.va",
        line 19:  Module configurable_adc is a compact model. As a result, it
        has been optimized automatically for better performance. For more
        information on compact models, refer to the Cadence Verilog-A Language
        Reference manual.

Time for NDB Parsing: CPU = 817.134 ms, elapsed = 702.408 ms.
Time accumulated: CPU = 911.129 ms, elapsed = 702.41 ms.
Peak resident memory used = 247 Mbytes.

Existing shared object for module configurable_adc is up to date.
Installed compiled interface for configurable_adc.
Time for Elaboration: CPU = 31.575 ms, elapsed = 15.6808 ms.
Time accumulated: CPU = 942.858 ms, elapsed = 718.243 ms.
Peak resident memory used = 253 Mbytes.


Time for EDB Visiting: CPU = 1.961 ms, elapsed = 968.218 us.
Time accumulated: CPU = 944.924 ms, elapsed = 719.314 ms.
Peak resident memory used = 254 Mbytes.


Notice from spectre during topology check.
    Only one connection to node `v_code'.


Netlist title:
        // Dynamic spectrum testbench for configurable_adc (Cadence Spectre).


Global user options:

Scoped user options:

Circuit inventory:
              nodes 5
   configurable_adc 1     
            vsource 4     

Analysis and control statement inventory:
               tran 1     

Output statements:
             .probe 0     
           .measure 0     
               save 1     

Time for parsing: CPU = 6.253 ms, elapsed = 3.27206 ms.
Time accumulated: CPU = 951.268 ms, elapsed = 722.676 ms.
Peak resident memory used = 257 Mbytes.

~~~~~~~~~~~~~~~~~~~~~~
Pre-Simulation Summary
~~~~~~~~~~~~~~~~~~~~~~
~~~~~~~~~~~~~~~~~~~~~~

***************************************************
Transient Analysis `tran': time = (0 s -> 8.192 ms)
***************************************************
DC simulation time: CPU = 1.767 ms, elapsed = 959.158 us.
Important parameter values:
    start = 0 s
    outputstart = 0 s
    stop = 8.192 ms
    step = 8.192 us
    maxstep = 250 ns
    ic = all
    useprevic = no
    skipdc = no
    reltol = 1e-03
    abstol(V) = 1 uV
    abstol(I) = 1 pA
    temp = 27 C
    tnom = 27 C
    tempeffects = all
    errpreset = moderate
    method = traponly
    lteratio = 3.5
    relref = sigglobal
    cmin = 0 F
    gmin = 1 pS


Output and IC/nodeset summary:
                 save   3       (voltage)

......9......8......7......6......5......4......3......2......1......0
Number of accepted tran steps =             278480

Maximum value achieved for any signal of each quantity: 
V: V(vdd) = 1 V
I: I(VDD:p) = 0 A
If your circuit contains signals of the same quantity that are vastly different
        in size (such as high voltage circuitry combined with low voltage
        control circuitry), you should consider specifying global option
        `bin_relref=yes'.

~~~~~~~~~~~~~~~~~~~~~~~~~~~~~~~~~
Post-Transient Simulation Summary
~~~~~~~~~~~~~~~~~~~~~~~~~~~~~~~~~
   -   To further speed up simulation, consider
          add ++aps on command line
   -   Non-default settings that could significantly slow down simulation
          maxstep = 250 ns, default 163.84 us
~~~~~~~~~~~~~~~~~~~~~~~~~~~~~~~~~


During simulation, the CPU load for active processors is :
         0 (6.9 %)       1 (10.0 %)      2 (3.0 %)       3 (4.2 %)
         4 (3.7 %)       5 (82.8 %)      6 (3.1 %)       7 (2.1 %)
         8 (3.0 %)       9 (14.9 %)     10 (2.5 %)      11 (32.6 %)
        12 (13.1 %)     13 (18.3 %)     14 (22.3 %)     15 (24.0 %)
        16 (3.6 %)      17 (36.9 %)     18 (2.8 %)      19 (5.7 %)
        20 (5.4 %)      21 (3.1 %)      22 (2.3 %)      23 (2.2 %)
        24 (5.7 %)      25 (5.1 %)      26 (4.0 %)      27 (4.8 %)
        28 (2.0 %)      29 (18.3 %)     30 (1.9 %)      31 (8.6 %)
        32 (2.0 %)      33 (10.4 %)     34 (1.8 %)      35 (47.0 %)
        36 (8.2 %)      37 (12.1 %)     38 (3.8 %)      39 (2.8 %)
        40 (2.0 %)      41 (34.7 %)     42 (3.0 %)      43 (11.8 %)
        44 (2.9 %)      45 (10.4 %)     46 (3.9 %)      47 (2.5 %)
        Total: 518.5%
Initial condition solution time: CPU = 1.812 ms, elapsed = 1.00493 ms.
Intrinsic tran analysis time:    CPU = 78.3521 s, elapsed = 74.4885 s.
Total time required for tran analysis `tran': CPU = 78.3554 s (1m  18.4s),
        elapsed = 74.49 s (1m  14.5s), util. = 105%.
Time accumulated: CPU = 79.3247 s (1m  19.3s), elapsed = 75.2281 s (1m 
        15.2s).
Peak resident memory used = 257 Mbytes.

Licensing Information:
Lic Summary:
[02:06:37.001216] cdslmd servers: /eda/cadence/license.dat
[02:06:37.016528] Feature usage summary:
[02:06:37.249391]   Virtuoso_Spectre  


Aggregate audit (2:06:37 AM, Sat Jun 6, 2026):
Time used: CPU = 79.3 s (1m  19.3s), elapsed = 79.3 s (1m  19.3s), util. =
        100%.
Time spent in licensing: elapsed = 256 ms.
Peak memory used = 256 Mbytes.
Simulation started at: 2:05:22 AM, Sat Jun 6, 2026, ended at: 2:06:37 AM, Sat
        Jun 6, 2026, with elapsed time (wall clock): 79.3 s (1m  19.3s).
spectre completes with 0 errors, 0 warnings, and 3 notices.
