# Spectre simulation log: static_inl_dnl.scs
Generated: 2026-06-05 18:03:00 UTC
Spectre run directory: /home/yongfu/proj/adc-model/outputs/spectre/logs
Command: spectre /home/yongfu/proj/adc-model/outputs/spectre/logs/netlists/static_inl_dnl.scs -format nutascii -raw /home/yongfu/proj/adc-model/outputs/spectre/logs/static_inl_dnl.nutascii
Raw output: /home/yongfu/proj/adc-model/outputs/spectre/logs/static_inl_dnl.nutascii

Spectre (R) Circuit Simulator
Version 24.1.0.167.isr2 64bit -- 28 Nov 2024
Copyright (C) 1989-2024 Cadence Design Systems, Inc. All rights reserved
        worldwide. Cadence and Spectre are registered trademarks of Cadence
        Design Systems, Inc. All others are the property of their respective
        holders.

Includes RSA BSAFE(R) Cryptographic or Security Protocol Software from RSA
        Security, Inc.

User: yongfu   Host: river   HostID: 7F0100   PID: 3166914
Memory  available: 358.1475 GB  physical: 405.0724 GB
Linux   : Red Hat Enterprise Linux release 9.7 (Plow)
CPU Type: Intel(R) Xeon(R) CPU E5-2678 v3 @ 2.50GHz
        Socket: Processors [Frequency] (Hyperthreaded Processor)
        0:       0 [3001.8] ( 24 ),  1 [3300.0] ( 25 ),  2 [3300.0] ( 26 )
                 3 [3025.9] ( 27 ),  4 [3300.0] ( 28 ),  5 [3300.0] ( 29 )
                 6 [3300.0] ( 30 ),  7 [3300.0] ( 31 ),  8 [3300.0] ( 32 )
                 9 [2899.1] ( 33 ), 10 [3300.0] ( 34 ), 11 [3300.0] ( 35 )
        1:      12 [3022.4] ( 36 ), 13 [3300.0] ( 37 ), 14 [3300.0] ( 38 )
                15 [2937.4] ( 39 ), 16 [3300.0] ( 40 ), 17 [2900.7] ( 41 )
                18 [3299.7] ( 42 ), 19 [3300.0] ( 43 ), 20 [2899.7] ( 44 )
                21 [3091.4] ( 45 ), 22 [3273.1] ( 46 ), 23 [2899.5] ( 47 )
        
System load averages (1min, 5min, 15min) : 10.3 %, 8.9 %, 7.4 %
Hyperthreading is enabled


Simulating
        `/home/yongfu/proj/adc-model/outputs/spectre/logs/netlists/static_inl_dnl.scs'
        on river at 2:03:00 AM, Sat Jun 6, 2026 (process id: 3166914).
Current working directory: /home/yongfu/proj/adc-model/outputs/spectre/logs
Command line:
    /eda/cadence/SPECTRE241/tools/bin/spectre -64  \
        /home/yongfu/proj/adc-model/outputs/spectre/logs/netlists/static_inl_dnl.scs
        \
        -format nutascii -raw  \
       
        /home/yongfu/proj/adc-model/outputs/spectre/logs/static_inl_dnl.nutascii
Licensing Information:
[02:03:00.080169] Configured Lic search path (24.01-s002):
        /eda/cadence/license.dat

Licensing Information:
[02:03:01.163169] Periodic Lic check successful

Reading file: 
        /home/yongfu/proj/adc-model/outputs/spectre/logs/netlists/static_inl_dnl.scs
Reading file: 
        /eda/cadence/SPECTRE241/tools.lnx86/spectre/etc/configs/spectre.cfg
Reading file: 
        /home/yongfu/proj/adc-model/outputs/spectre/logs/netlists/configurable_adc.va
Reading file: 
        /eda/cadence/SPECTRE241/tools.lnx86/spectre/etc/ahdl/constants.vams
Reading file: 
        /eda/cadence/SPECTRE241/tools.lnx86/spectre/etc/ahdl/disciplines.vams
Reading file: 
        /home/yongfu/proj/adc-model/outputs/spectre/logs/netlists/dnl_profile.inc
Reading file: 
        /home/yongfu/proj/adc-model/outputs/spectre/logs/netlists/edge_noise.inc

Notice from spectre during AHDL read-in.
    "/home/yongfu/proj/adc-model/outputs/spectre/logs/netlists/configurable_adc.va",
        line 19:  Module configurable_adc is a compact model. As a result, it
        has been optimized automatically for better performance. For more
        information on compact models, refer to the Cadence Verilog-A Language
        Reference manual.

Time for NDB Parsing: CPU = 1.35008 s, elapsed = 969.35 ms.
Time accumulated: CPU = 1.44205 s, elapsed = 969.352 ms.
Peak resident memory used = 292 Mbytes.

Existing shared object for module configurable_adc is up to date.
Installed compiled interface for configurable_adc.
Time for Elaboration: CPU = 31.323 ms, elapsed = 15.435 ms.
Time accumulated: CPU = 1.47351 s, elapsed = 984.916 ms.
Peak resident memory used = 297 Mbytes.


Time for EDB Visiting: CPU = 1.939 ms, elapsed = 947.952 us.
Time accumulated: CPU = 1.47555 s, elapsed = 985.963 ms.
Peak resident memory used = 298 Mbytes.


Notice from spectre during topology check.
    Only one connection to node `v_code'.


Netlist title:
        // Static INL/DNL testbench for configurable_adc (Cadence Spectre).


Global user options:

Scoped user options:

Circuit inventory:
              nodes 5
   configurable_adc 1     
            vsource 4     

Analysis and control statement inventory:
               tran 1     

Output statements:
             .probe 0     
           .measure 0     
               save 1     

Time for parsing: CPU = 6.286 ms, elapsed = 3.30591 ms.
Time accumulated: CPU = 1.48193 s, elapsed = 989.36 ms.
Peak resident memory used = 301 Mbytes.

~~~~~~~~~~~~~~~~~~~~~~
Pre-Simulation Summary
~~~~~~~~~~~~~~~~~~~~~~
~~~~~~~~~~~~~~~~~~~~~~

****************************************************
Transient Analysis `tran': time = (0 s -> 16.384 ms)
****************************************************
DC simulation time: CPU = 2.106 ms, elapsed = 1.127 ms.
Important parameter values:
    start = 0 s
    outputstart = 0 s
    stop = 16.384 ms
    step = 16.384 us
    maxstep = 250 ns
    ic = all
    useprevic = no
    skipdc = no
    reltol = 1e-03
    abstol(V) = 1 uV
    abstol(I) = 1 pA
    temp = 27 C
    tnom = 27 C
    tempeffects = all
    errpreset = moderate
    method = traponly
    lteratio = 3.5
    relref = sigglobal
    cmin = 0 F
    gmin = 1 pS


Output and IC/nodeset summary:
                 save   3       (voltage)

......9......8......7......6......5......4......3......2......1......0
Number of accepted tran steps =             487384

Maximum value achieved for any signal of each quantity: 
V: V(vdd) = 1 V
I: I(VDD:p) = 0 A
If your circuit contains signals of the same quantity that are vastly different
        in size (such as high voltage circuitry combined with low voltage
        control circuitry), you should consider specifying global option
        `bin_relref=yes'.

~~~~~~~~~~~~~~~~~~~~~~~~~~~~~~~~~
Post-Transient Simulation Summary
~~~~~~~~~~~~~~~~~~~~~~~~~~~~~~~~~
   -   To further speed up simulation, consider
          add ++aps on command line
   -   Non-default settings that could significantly slow down simulation
          maxstep = 250 ns, default 327.68 us
~~~~~~~~~~~~~~~~~~~~~~~~~~~~~~~~~


During simulation, the CPU load for active processors is :
         0 (8.6 %)       1 (8.1 %)       2 (2.6 %)       3 (1.6 %)
         4 (27.0 %)      5 (4.3 %)       6 (3.9 %)       7 (1.7 %)
         8 (2.2 %)       9 (63.1 %)     10 (32.7 %)     11 (1.0 %)
        12 (16.5 %)     13 (6.1 %)      14 (5.6 %)      15 (12.7 %)
        16 (2.8 %)      17 (6.2 %)      18 (13.2 %)     19 (4.6 %)
        20 (5.9 %)      21 (3.9 %)      22 (3.4 %)      23 (10.1 %)
        24 (1.6 %)      25 (3.8 %)      26 (3.7 %)      27 (2.0 %)
        28 (17.9 %)     29 (5.4 %)      30 (1.8 %)      31 (3.9 %)
        32 (4.3 %)      33 (2.1 %)      34 (43.1 %)     35 (7.5 %)
        36 (7.8 %)      37 (4.1 %)      38 (2.6 %)      39 (13.2 %)
        40 (8.2 %)      41 (17.8 %)     42 (5.3 %)      43 (4.9 %)
        44 (12.1 %)     45 (2.8 %)      46 (17.6 %)     47 (3.9 %)
        Total: 445.1%
Initial condition solution time: CPU = 2.148 ms, elapsed = 1.17111 ms.
Intrinsic tran analysis time:    CPU = 139.183 s, elapsed = 135.855 s.
Total time required for tran analysis `tran': CPU = 139.186 s (2m  19.2s),
        elapsed = 135.856 s (2m  15.9s), util. = 102%.
Time accumulated: CPU = 140.694 s (2m  20.7s), elapsed = 136.865 s (2m 
        16.9s).
Peak resident memory used = 301 Mbytes.

Licensing Information:
Lic Summary:
[02:05:17.001192] cdslmd servers: /eda/cadence/license.dat
[02:05:17.016504] Feature usage summary:
[02:05:17.249367]   Virtuoso_Spectre  


Aggregate audit (2:05:17 AM, Sat Jun 6, 2026):
Time used: CPU = 141 s (2m  20.7s), elapsed = 141 s (2m  20.7s), util. = 100%.
Time spent in licensing: elapsed = 256 ms.
Peak memory used = 300 Mbytes.
Simulation started at: 2:03:00 AM, Sat Jun 6, 2026, ended at: 2:05:17 AM, Sat
        Jun 6, 2026, with elapsed time (wall clock): 141 s (2m  20.7s).
spectre completes with 0 errors, 0 warnings, and 3 notices.
