# Spectre simulation log: static_inl_dnl.scs
Generated: 2026-06-07 15:15:46 UTC
Spectre run directory: /home/yongfu/proj/circuit-calibration/adc-calibration/model/adc-model/outputs/spectre/logs
Command: spectre /home/yongfu/proj/circuit-calibration/adc-calibration/model/adc-model/outputs/spectre/logs/netlists/static_inl_dnl.scs -format nutascii -raw /home/yongfu/proj/circuit-calibration/adc-calibration/model/adc-model/outputs/spectre/logs/static_inl_dnl.nutascii
Raw output: /home/yongfu/proj/circuit-calibration/adc-calibration/model/adc-model/outputs/spectre/logs/static_inl_dnl.nutascii

Spectre (R) Circuit Simulator
Version 24.1.0.167.isr2 64bit -- 28 Nov 2024
Copyright (C) 1989-2024 Cadence Design Systems, Inc. All rights reserved
        worldwide. Cadence and Spectre are registered trademarks of Cadence
        Design Systems, Inc. All others are the property of their respective
        holders.

Includes RSA BSAFE(R) Cryptographic or Security Protocol Software from RSA
        Security, Inc.

User: yongfu   Host: river   HostID: 7F0100   PID: 4075631
Memory  available: 300.6174 GB  physical: 405.0724 GB
Linux   : Red Hat Enterprise Linux release 9.7 (Plow)
CPU Type: Intel(R) Xeon(R) CPU E5-2678 v3 @ 2.50GHz
        Socket: Processors [Frequency] (Hyperthreaded Processor)
        0:       0 [2899.9] ( 24 ),  1 [2899.7] ( 25 ),  2 [2899.4] ( 26 )
                 3 [2899.7] ( 27 ),  4 [2899.7] ( 28 ),  5 [2899.7] ( 29 )
                 6 [2899.8] ( 30 ),  7 [3300.0] ( 31 ),  8 [2899.8] ( 32 )
                 9 [2899.3] ( 33 ), 10 [2899.7] ( 34 ), 11 [2899.7] ( 35 )
        1:      12 [3300.0] ( 36 ), 13 [3300.0] ( 37 ), 14 [2900.6] ( 38 )
                15 [2899.7] ( 39 ), 16 [3300.0] ( 40 ), 17 [2900.1] ( 41 )
                18 [2899.9] ( 42 ), 19 [2899.7] ( 43 ), 20 [2899.7] ( 44 )
                21 [2899.7] ( 45 ), 22 [2899.7] ( 46 ), 23 [2899.9] ( 47 )
        
System load averages (1min, 5min, 15min) : 36.6 %, 37.1 %, 35.1 %
Hyperthreading is enabled


Simulating
        `/home/yongfu/proj/circuit-calibration/adc-calibration/model/adc-model/outputs/spectre/logs/netlists/static_inl_dnl.scs'
        on river at 11:15:46 PM, Sun Jun 7, 2026 (process id: 4075631).
Current working directory:
        /home/yongfu/proj/circuit-calibration/adc-calibration/model/adc-model/outputs/spectre/logs
Command line:
    /eda/cadence/SPECTRE241/tools/bin/spectre -64  \
        /home/yongfu/proj/circuit-calibration/adc-calibration/model/adc-model/outputs/spectre/logs/netlists/static_inl_dnl.scs
        \
        -format nutascii -raw  \
       
        /home/yongfu/proj/circuit-calibration/adc-calibration/model/adc-model/outputs/spectre/logs/static_inl_dnl.nutascii
Licensing Information:
[23:15:46.080297] Configured Lic search path (24.01-s002):
        /eda/cadence/license.dat

Licensing Information:
[23:15:46.441162] Periodic Lic check successful

Reading file: 
        /home/yongfu/proj/circuit-calibration/adc-calibration/model/adc-model/outputs/spectre/logs/netlists/static_inl_dnl.scs
Reading file: 
        /eda/cadence/SPECTRE241/tools.lnx86/spectre/etc/configs/spectre.cfg
Reading file: 
        /home/yongfu/proj/circuit-calibration/adc-calibration/model/adc-model/outputs/spectre/logs/netlists/configurable_adc.va
Reading file: 
        /eda/cadence/SPECTRE241/tools.lnx86/spectre/etc/ahdl/constants.vams
Reading file: 
        /eda/cadence/SPECTRE241/tools.lnx86/spectre/etc/ahdl/disciplines.vams
Reading file: 
        /home/yongfu/proj/circuit-calibration/adc-calibration/model/adc-model/outputs/spectre/logs/netlists/dnl_profile.inc
Reading file: 
        /home/yongfu/proj/circuit-calibration/adc-calibration/model/adc-model/outputs/spectre/logs/netlists/edge_noise.inc

Notice from spectre during AHDL read-in.
    "/home/yongfu/proj/circuit-calibration/adc-calibration/model/adc-model/outputs/spectre/logs/netlists/configurable_adc.va",
        line 19:  Module configurable_adc is a compact model. As a result, it
        has been optimized automatically for better performance. For more
        information on compact models, refer to the Cadence Verilog-A Language
        Reference manual.

Time for NDB Parsing: CPU = 1.4614 s, elapsed = 1.03149 s.
Time accumulated: CPU = 1.56001 s, elapsed = 1.03149 s.
Peak resident memory used = 269 Mbytes.

Existing shared object for module configurable_adc is up to date.
Installed compiled interface for configurable_adc.
Time for Elaboration: CPU = 32.45 ms, elapsed = 16.542 ms.
Time accumulated: CPU = 1.59261 s, elapsed = 1.04817 s.
Peak resident memory used = 274 Mbytes.


Time for EDB Visiting: CPU = 1.997 ms, elapsed = 1.00493 ms.
Time accumulated: CPU = 1.59578 s, elapsed = 1.04936 s.
Peak resident memory used = 275 Mbytes.


Notice from spectre during topology check.
    Only one connection to node `v_code'.


Netlist title:
        // Static INL/DNL testbench for configurable_adc (Cadence Spectre).


Global user options:

Scoped user options:

Circuit inventory:
              nodes 5
   configurable_adc 1     
            vsource 4     

Analysis and control statement inventory:
               tran 1     

Output statements:
             .probe 0     
           .measure 0     
               save 1     

Time for parsing: CPU = 6.361 ms, elapsed = 3.38197 ms.
Time accumulated: CPU = 1.60223 s, elapsed = 1.05283 s.
Peak resident memory used = 278 Mbytes.

~~~~~~~~~~~~~~~~~~~~~~
Pre-Simulation Summary
~~~~~~~~~~~~~~~~~~~~~~
~~~~~~~~~~~~~~~~~~~~~~

****************************************************
Transient Analysis `tran': time = (0 s -> 16.384 ms)
****************************************************
DC simulation time: CPU = 2.354 ms, elapsed = 1.36399 ms.
Important parameter values:
    start = 0 s
    outputstart = 0 s
    stop = 16.384 ms
    step = 16.384 us
    maxstep = 250 ns
    ic = all
    useprevic = no
    skipdc = no
    reltol = 1e-03
    abstol(V) = 1 uV
    abstol(I) = 1 pA
    temp = 27 C
    tnom = 27 C
    tempeffects = all
    errpreset = moderate
    method = traponly
    lteratio = 3.5
    relref = sigglobal
    cmin = 0 F
    gmin = 1 pS


Output and IC/nodeset summary:
                 save   3       (voltage)

......9......8......7......6......5......4......3......2......1......0
Number of accepted tran steps =             487384

Maximum value achieved for any signal of each quantity: 
V: V(vdd) = 1 V
I: I(VDD:p) = 0 A
If your circuit contains signals of the same quantity that are vastly different
        in size (such as high voltage circuitry combined with low voltage
        control circuitry), you should consider specifying global option
        `bin_relref=yes'.

~~~~~~~~~~~~~~~~~~~~~~~~~~~~~~~~~
Post-Transient Simulation Summary
~~~~~~~~~~~~~~~~~~~~~~~~~~~~~~~~~
   -   To further speed up simulation, consider
          add ++aps on command line
   -   Non-default settings that could significantly slow down simulation
          maxstep = 250 ns, default 327.68 us
~~~~~~~~~~~~~~~~~~~~~~~~~~~~~~~~~


During simulation, the CPU load for active processors is :
         0 (14.5 %)      1 (24.6 %)      2 (42.8 %)      3 (58.4 %)
         4 (32.8 %)      5 (9.0 %)       6 (68.6 %)      7 (25.9 %)
         8 (32.3 %)      9 (21.9 %)     10 (60.6 %)     11 (22.3 %)
        12 (42.6 %)     13 (38.8 %)     14 (36.6 %)     15 (34.8 %)
        16 (43.4 %)     17 (57.7 %)     18 (59.8 %)     19 (30.0 %)
        20 (37.7 %)     21 (47.3 %)     22 (51.6 %)     23 (47.3 %)
        24 (7.5 %)      25 (29.9 %)     26 (10.5 %)     27 (9.9 %)
        28 (62.0 %)     29 (69.3 %)     30 (7.8 %)      31 (41.1 %)
        32 (33.9 %)     33 (78.7 %)     34 (15.5 %)     35 (78.5 %)
        36 (22.5 %)     37 (16.8 %)     38 (11.6 %)     39 (46.2 %)
        40 (42.5 %)     41 (19.4 %)     42 (14.0 %)     43 (44.5 %)
        44 (24.6 %)     45 (35.8 %)     46 (33.3 %)     47 (18.6 %)
        Total: 1715.6%
Initial condition solution time: CPU = 2.425 ms, elapsed = 1.43409 ms.
Intrinsic tran analysis time:    CPU = 143.102 s, elapsed = 139.732 s.
Total time required for tran analysis `tran': CPU = 143.105 s (2m  23.1s),
        elapsed = 139.734 s (2m  19.7s), util. = 102%.
Time accumulated: CPU = 144.74 s (2m  24.7s), elapsed = 140.81 s (2m  20.8s).
Peak resident memory used = 278 Mbytes.

Licensing Information:
Lic Summary:
[23:18:07.001240] cdslmd servers: /eda/cadence/license.dat
[23:18:07.016552] Feature usage summary:
[23:18:07.249415]   Virtuoso_Spectre  


Aggregate audit (11:18:07 PM, Sun Jun 7, 2026):
Time used: CPU = 145 s (2m  24.7s), elapsed = 145 s (2m  24.7s), util. = 100%.
Time spent in licensing: elapsed = 259 ms.
Peak memory used = 277 Mbytes.
Simulation started at: 11:15:46 PM, Sun Jun 7, 2026, ended at: 11:18:07 PM, Sun
        Jun 7, 2026, with elapsed time (wall clock): 145 s (2m  24.7s).
spectre completes with 0 errors, 0 warnings, and 3 notices.
