# Spectre simulation log: dynamic_spectrum.scs
Generated: 2026-06-04 11:21:00 UTC
Spectre run directory: /home/yongfu/proj/adc-calibration/model/adc-model/outputs/spectre/logs
Command: spectre /home/yongfu/proj/adc-calibration/model/adc-model/outputs/spectre/logs/netlists/dynamic_spectrum.scs -format nutascii -raw /home/yongfu/proj/adc-calibration/model/adc-model/outputs/spectre/logs/dynamic_spectrum.nutascii
Raw output: /home/yongfu/proj/adc-calibration/model/adc-model/outputs/spectre/logs/dynamic_spectrum.nutascii

Spectre (R) Circuit Simulator
Version 24.1.0.167.isr2 64bit -- 28 Nov 2024
Copyright (C) 1989-2024 Cadence Design Systems, Inc. All rights reserved
        worldwide. Cadence and Spectre are registered trademarks of Cadence
        Design Systems, Inc. All others are the property of their respective
        holders.

Includes RSA BSAFE(R) Cryptographic or Security Protocol Software from RSA
        Security, Inc.

User: yongfu   Host: river   HostID: 7F0100   PID: 285842
Memory  available: 338.9918 GB  physical: 405.0724 GB
Linux   : Red Hat Enterprise Linux release 9.7 (Plow)
CPU Type: Intel(R) Xeon(R) CPU E5-2678 v3 @ 2.50GHz
        Socket: Processors [Frequency] (Hyperthreaded Processor)
        0:       0 [2799.9] ( 24 ),  1 [2800.2] ( 25 ),  2 [2851.2] ( 26 )
                 3 [3300.0] ( 27 ),  4 [2800.0] ( 28 ),  5 [3300.0] ( 29 )
                 6 [3300.0] ( 30 ),  7 [2851.5] ( 31 ),  8 [2897.5] ( 32 )
                 9 [2897.5] ( 33 ), 10 [2898.0] ( 34 ), 11 [2851.3] ( 35 )
        1:      12 [2899.7] ( 36 ), 13 [2899.8] ( 37 ), 14 [2886.3] ( 38 )
                15 [3300.0] ( 39 ), 16 [2900.7] ( 40 ), 17 [2900.2] ( 41 )
                18 [3300.0] ( 42 ), 19 [2916.4] ( 43 ), 20 [2899.7] ( 44 )
                21 [2912.9] ( 45 ), 22 [3300.0] ( 46 ), 23 [2909.3] ( 47 )
        
System load averages (1min, 5min, 15min) : 10.1 %, 23.1 %, 59.1 %
Hyperthreading is enabled


Simulating
        `/home/yongfu/proj/adc-calibration/model/adc-model/outputs/spectre/logs/netlists/dynamic_spectrum.scs'
        on river at 7:21:00 PM, Thur Jun 4, 2026 (process id: 285842).
Current working directory:
        /home/yongfu/proj/adc-calibration/model/adc-model/outputs/spectre/logs
Command line:
    /eda/cadence/SPECTRE241/tools/bin/spectre -64  \
        /home/yongfu/proj/adc-calibration/model/adc-model/outputs/spectre/logs/netlists/dynamic_spectrum.scs
        \
        -format nutascii -raw  \
       
        /home/yongfu/proj/adc-calibration/model/adc-model/outputs/spectre/logs/dynamic_spectrum.nutascii
Licensing Information:
[19:21:00.080233] Configured Lic search path (24.01-s002):
        /eda/cadence/license.dat

Licensing Information:
[19:21:01.207978] Periodic Lic check successful

Reading file: 
        /home/yongfu/proj/adc-calibration/model/adc-model/outputs/spectre/logs/netlists/dynamic_spectrum.scs
Reading file: 
        /eda/cadence/SPECTRE241/tools.lnx86/spectre/etc/configs/spectre.cfg
Reading file: 
        /home/yongfu/proj/adc-calibration/model/adc-model/veriloga/configurable_adc.va
Reading file: 
        /eda/cadence/SPECTRE241/tools.lnx86/spectre/etc/ahdl/constants.vams
Reading file: 
        /eda/cadence/SPECTRE241/tools.lnx86/spectre/etc/ahdl/disciplines.vams
Time for NDB Parsing: CPU = 174.221 ms, elapsed = 383.585 ms.
Time accumulated: CPU = 269.695 ms, elapsed = 383.587 ms.
Peak resident memory used = 193 Mbytes.

Existing shared object for module configurable_adc is up to date.
Installed compiled interface for configurable_adc.
Time for Elaboration: CPU = 34.206 ms, elapsed = 17.3562 ms.
Time accumulated: CPU = 303.999 ms, elapsed = 401.039 ms.
Peak resident memory used = 201 Mbytes.


Time for EDB Visiting: CPU = 501 us, elapsed = 501.156 us.
Time accumulated: CPU = 305.616 ms, elapsed = 401.656 ms.
Peak resident memory used = 203 Mbytes.


Notice from spectre during topology check.
    Only one connection to node `v_code'.


Netlist title:
        // Dynamic spectrum testbench for configurable_adc (Cadence Spectre).


Global user options:

Scoped user options:

Circuit inventory:
              nodes 5
   configurable_adc 1     
            vsource 4     

Analysis and control statement inventory:
               tran 1     

Output statements:
             .probe 0     
           .measure 0     
               save 1     

Time for parsing: CPU = 5.551 ms, elapsed = 2.57206 ms.
Time accumulated: CPU = 311.242 ms, elapsed = 404.303 ms.
Peak resident memory used = 206 Mbytes.

~~~~~~~~~~~~~~~~~~~~~~
Pre-Simulation Summary
~~~~~~~~~~~~~~~~~~~~~~
~~~~~~~~~~~~~~~~~~~~~~

***************************************************
Transient Analysis `tran': time = (0 s -> 8.192 ms)
***************************************************
DC simulation time: CPU = 1.689 ms, elapsed = 696.898 us.
Important parameter values:
    start = 0 s
    outputstart = 0 s
    stop = 8.192 ms
    step = 8.192 us
    maxstep = 250 ns
    ic = all
    useprevic = no
    skipdc = no
    reltol = 1e-03
    abstol(V) = 1 uV
    abstol(I) = 1 pA
    temp = 27 C
    tnom = 27 C
    tempeffects = all
    errpreset = moderate
    method = traponly
    lteratio = 3.5
    relref = sigglobal
    cmin = 0 F
    gmin = 1 pS


Output and IC/nodeset summary:
                 save   3       (voltage)

......9......8......7......6......5......4......3......2......1......0
Number of accepted tran steps =             278492

Maximum value achieved for any signal of each quantity: 
V: V(vdd) = 1 V
I: I(VDD:p) = 0 A
If your circuit contains signals of the same quantity that are vastly different
        in size (such as high voltage circuitry combined with low voltage
        control circuitry), you should consider specifying global option
        `bin_relref=yes'.

~~~~~~~~~~~~~~~~~~~~~~~~~~~~~~~~~
Post-Transient Simulation Summary
~~~~~~~~~~~~~~~~~~~~~~~~~~~~~~~~~
   -   To further speed up simulation, consider
          add ++aps on command line
   -   Non-default settings that could significantly slow down simulation
          maxstep = 250 ns, default 163.84 us
~~~~~~~~~~~~~~~~~~~~~~~~~~~~~~~~~


During simulation, the CPU load for active processors is :
         0 (4.9 %)       1 (3.3 %)       2 (100.0 %)     3 (1.9 %)
         4 (1.0 %)       5 (2.2 %)       6 (2.1 %)       7 (2.3 %)
         8 (2.7 %)       9 (1.9 %)      10 (1.5 %)      11 (9.9 %)
        12 (1.8 %)      13 (1.6 %)      14 (1.1 %)      15 (1.0 %)
        16 (1.1 %)      17 (1.0 %)      20 (1.6 %)      21 (100.0 %)
        22 (3.9 %)      23 (2.1 %)      24 (4.1 %)      28 (2.1 %)
        29 (78.8 %)     31 (13.2 %)     32 (1.7 %)      35 (10.7 %)
        36 (1.0 %)      37 (1.9 %)      38 (2.2 %)      39 (97.9 %)
        41 (1.2 %)      42 (38.1 %)     44 (1.7 %)      46 (2.2 %)
        47 (2.0 %)      
        Total: 514.6%
Initial condition solution time: CPU = 1.746 ms, elapsed = 754.833 us.
Intrinsic tran analysis time:    CPU = 15.6091 s, elapsed = 11.2501 s.
Total time required for tran analysis `tran': CPU = 15.6113 s, elapsed =
        11.2513 s, util. = 139%.
Time accumulated: CPU = 15.9333 s, elapsed = 11.6664 s.
Peak resident memory used = 214 Mbytes.

Licensing Information:
Lic Summary:
[19:21:12.001200] cdslmd servers: /eda/cadence/license.dat
[19:21:12.016512] Feature usage summary:
[19:21:12.249375]   Virtuoso_Spectre  


Aggregate audit (7:21:12 PM, Thur Jun 4, 2026):
Time used: CPU = 15.9 s, elapsed = 15.9 s, util. = 100%.
Time spent in licensing: elapsed = 257 ms.
Peak memory used = 215 Mbytes.
Simulation started at: 7:21:00 PM, Thur Jun 4, 2026, ended at: 7:21:12 PM, Thur
        Jun 4, 2026, with elapsed time (wall clock): 15.9 s.
spectre completes with 0 errors, 0 warnings, and 2 notices.
