# Spectre simulation log: static_inl_dnl.scs
Generated: 2026-06-04 11:20:36 UTC
Spectre run directory: /home/yongfu/proj/adc-calibration/model/adc-model/outputs/spectre/logs
Command: spectre /home/yongfu/proj/adc-calibration/model/adc-model/outputs/spectre/logs/netlists/static_inl_dnl.scs -format nutascii -raw /home/yongfu/proj/adc-calibration/model/adc-model/outputs/spectre/logs/static_inl_dnl.nutascii
Raw output: /home/yongfu/proj/adc-calibration/model/adc-model/outputs/spectre/logs/static_inl_dnl.nutascii

Spectre (R) Circuit Simulator
Version 24.1.0.167.isr2 64bit -- 28 Nov 2024
Copyright (C) 1989-2024 Cadence Design Systems, Inc. All rights reserved
        worldwide. Cadence and Spectre are registered trademarks of Cadence
        Design Systems, Inc. All others are the property of their respective
        holders.

Includes RSA BSAFE(R) Cryptographic or Security Protocol Software from RSA
        Security, Inc.

User: yongfu   Host: river   HostID: 7F0100   PID: 285161
Memory  available: 341.9483 GB  physical: 405.0724 GB
Linux   : Red Hat Enterprise Linux release 9.7 (Plow)
CPU Type: Intel(R) Xeon(R) CPU E5-2678 v3 @ 2.50GHz
        Socket: Processors [Frequency] (Hyperthreaded Processor)
        0:       0 [3099.7] ( 24 ),  1 [2974.9] ( 25 ),  2 [3300.0] ( 26 )
                 3 [3300.0] ( 27 ),  4 [3300.0] ( 28 ),  5 [3300.0] ( 29 )
                 6 [3300.0] ( 30 ),  7 [2805.0] ( 31 ),  8 [3300.0] ( 32 )
                 9 [3300.0] ( 33 ), 10 [3300.0] ( 34 ), 11 [3300.0] ( 35 )
        1:      12 [2973.7] ( 36 ), 13 [3065.2] ( 37 ), 14 [2973.7] ( 38 )
                15 [3300.0] ( 39 ), 16 [2953.2] ( 40 ), 17 [2973.4] ( 41 )
                18 [2943.4] ( 42 ), 19 [2900.5] ( 43 ), 20 [3300.0] ( 44 )
                21 [3300.0] ( 45 ), 22 [3300.0] ( 46 ), 23 [2961.0] ( 47 )
        
System load averages (1min, 5min, 15min) : 10.7 %, 24.3 %, 60.5 %
Hyperthreading is enabled


Simulating
        `/home/yongfu/proj/adc-calibration/model/adc-model/outputs/spectre/logs/netlists/static_inl_dnl.scs'
        on river at 7:20:36 PM, Thur Jun 4, 2026 (process id: 285161).
Current working directory:
        /home/yongfu/proj/adc-calibration/model/adc-model/outputs/spectre/logs
Command line:
    /eda/cadence/SPECTRE241/tools/bin/spectre -64  \
        /home/yongfu/proj/adc-calibration/model/adc-model/outputs/spectre/logs/netlists/static_inl_dnl.scs
        \
        -format nutascii -raw  \
       
        /home/yongfu/proj/adc-calibration/model/adc-model/outputs/spectre/logs/static_inl_dnl.nutascii
Licensing Information:
[19:20:36.080297] Configured Lic search path (24.01-s002):
        /eda/cadence/license.dat

Licensing Information:
[19:20:36.370418] Periodic Lic check successful

Reading file: 
        /home/yongfu/proj/adc-calibration/model/adc-model/outputs/spectre/logs/netlists/static_inl_dnl.scs
Reading file: 
        /eda/cadence/SPECTRE241/tools.lnx86/spectre/etc/configs/spectre.cfg
Reading file: 
        /home/yongfu/proj/adc-calibration/model/adc-model/veriloga/configurable_adc.va
Reading file: 
        /eda/cadence/SPECTRE241/tools.lnx86/spectre/etc/ahdl/constants.vams
Reading file: 
        /eda/cadence/SPECTRE241/tools.lnx86/spectre/etc/ahdl/disciplines.vams
Time for NDB Parsing: CPU = 188.123 ms, elapsed = 389.997 ms.
Time accumulated: CPU = 283.211 ms, elapsed = 389.999 ms.
Peak resident memory used = 168 Mbytes.

Existing shared object for module configurable_adc is up to date.
Installed compiled interface for configurable_adc.
Time for Elaboration: CPU = 43.203 ms, elapsed = 21.441 ms.
Time accumulated: CPU = 326.529 ms, elapsed = 411.555 ms.
Peak resident memory used = 178 Mbytes.


Time for EDB Visiting: CPU = 616 us, elapsed = 617.027 us.
Time accumulated: CPU = 327.276 ms, elapsed = 412.301 ms.
Peak resident memory used = 179 Mbytes.


Notice from spectre during topology check.
    Only one connection to node `v_code'.


Netlist title:
        // Static INL/DNL testbench for configurable_adc (Cadence Spectre).


Global user options:

Scoped user options:

Circuit inventory:
              nodes 5
   configurable_adc 1     
            vsource 4     

Analysis and control statement inventory:
               tran 1     

Output statements:
             .probe 0     
           .measure 0     
               save 1     

Time for parsing: CPU = 8.791 ms, elapsed = 4.81606 ms.
Time accumulated: CPU = 337.16 ms, elapsed = 417.216 ms.
Peak resident memory used = 182 Mbytes.

~~~~~~~~~~~~~~~~~~~~~~
Pre-Simulation Summary
~~~~~~~~~~~~~~~~~~~~~~
~~~~~~~~~~~~~~~~~~~~~~

****************************************************
Transient Analysis `tran': time = (0 s -> 16.384 ms)
****************************************************
DC simulation time: CPU = 1.728 ms, elapsed = 736.952 us.
Important parameter values:
    start = 0 s
    outputstart = 0 s
    stop = 16.384 ms
    step = 16.384 us
    maxstep = 250 ns
    ic = all
    useprevic = no
    skipdc = no
    reltol = 1e-03
    abstol(V) = 1 uV
    abstol(I) = 1 pA
    temp = 27 C
    tnom = 27 C
    tempeffects = all
    errpreset = moderate
    method = traponly
    lteratio = 3.5
    relref = sigglobal
    cmin = 0 F
    gmin = 1 pS


Output and IC/nodeset summary:
                 save   3       (voltage)

......9......8......7......6......5......4......3......2......1......0
Number of accepted tran steps =             464860

Maximum value achieved for any signal of each quantity: 
V: V(vdd) = 1 V
I: I(VDD:p) = 0 A
If your circuit contains signals of the same quantity that are vastly different
        in size (such as high voltage circuitry combined with low voltage
        control circuitry), you should consider specifying global option
        `bin_relref=yes'.

~~~~~~~~~~~~~~~~~~~~~~~~~~~~~~~~~
Post-Transient Simulation Summary
~~~~~~~~~~~~~~~~~~~~~~~~~~~~~~~~~
   -   To further speed up simulation, consider
          add ++aps on command line
   -   Non-default settings that could significantly slow down simulation
          maxstep = 250 ns, default 327.68 us
~~~~~~~~~~~~~~~~~~~~~~~~~~~~~~~~~


During simulation, the CPU load for active processors is :
         0 (8.6 %)       1 (98.8 %)      2 (59.5 %)      3 (1.0 %)
         4 (2.2 %)       7 (2.4 %)       8 (3.2 %)       9 (14.4 %)
        10 (24.7 %)     12 (100.0 %)    13 (1.2 %)      14 (38.0 %)
        15 (1.5 %)      16 (2.0 %)      17 (1.6 %)      19 (1.2 %)
        20 (2.1 %)      21 (3.0 %)      22 (1.4 %)      23 (1.0 %)
        24 (1.2 %)      28 (1.0 %)      32 (2.7 %)      35 (100.0 %)
        38 (1.1 %)      39 (1.1 %)      42 (1.5 %)      44 (1.0 %)
        45 (1.7 %)      47 (1.1 %)      
        Total: 489.7%
Initial condition solution time: CPU = 1.782 ms, elapsed = 792.027 us.
Intrinsic tran analysis time:    CPU = 23.4124 s, elapsed = 18.8104 s.
Total time required for tran analysis `tran': CPU = 23.4148 s, elapsed =
        18.8118 s, util. = 124%.
Time accumulated: CPU = 23.7655 s, elapsed = 19.2415 s.
Peak resident memory used = 191 Mbytes.

Licensing Information:
Lic Summary:
[19:20:55.001248] cdslmd servers: /eda/cadence/license.dat
[19:20:55.016560] Feature usage summary:
[19:20:55.249423]   Virtuoso_Spectre  


Aggregate audit (7:20:55 PM, Thur Jun 4, 2026):
Time used: CPU = 23.8 s, elapsed = 23.8 s, util. = 100%.
Time spent in licensing: elapsed = 259 ms.
Peak memory used = 191 Mbytes.
Simulation started at: 7:20:36 PM, Thur Jun 4, 2026, ended at: 7:20:55 PM, Thur
        Jun 4, 2026, with elapsed time (wall clock): 23.8 s.
spectre completes with 0 errors, 0 warnings, and 2 notices.
