# Spectre simulation log: dynamic_spectrum.scs
Generated: 2026-06-07 15:18:12 UTC
Spectre run directory: /home/yongfu/proj/circuit-calibration/adc-calibration/model/adc-model/outputs/spectre/logs
Command: spectre /home/yongfu/proj/circuit-calibration/adc-calibration/model/adc-model/outputs/spectre/logs/netlists/dynamic_spectrum.scs -format nutascii -raw /home/yongfu/proj/circuit-calibration/adc-calibration/model/adc-model/outputs/spectre/logs/dynamic_spectrum.nutascii
Raw output: /home/yongfu/proj/circuit-calibration/adc-calibration/model/adc-model/outputs/spectre/logs/dynamic_spectrum.nutascii

Spectre (R) Circuit Simulator
Version 24.1.0.167.isr2 64bit -- 28 Nov 2024
Copyright (C) 1989-2024 Cadence Design Systems, Inc. All rights reserved
        worldwide. Cadence and Spectre are registered trademarks of Cadence
        Design Systems, Inc. All others are the property of their respective
        holders.

Includes RSA BSAFE(R) Cryptographic or Security Protocol Software from RSA
        Security, Inc.

User: yongfu   Host: river   HostID: 7F0100   PID: 4079696
Memory  available: 301.3093 GB  physical: 405.0724 GB
Linux   : Red Hat Enterprise Linux release 9.7 (Plow)
CPU Type: Intel(R) Xeon(R) CPU E5-2678 v3 @ 2.50GHz
        Socket: Processors [Frequency] (Hyperthreaded Processor)
        0:       0 [2900.5] ( 24 ),  1 [2903.5] ( 25 ),  2 [2900.1] ( 26 )
                 3 [2900.4] ( 27 ),  4 [2899.7] ( 28 ),  5 [3300.0] ( 29 )
                 6 [2899.7] ( 30 ),  7 [3300.0] ( 31 ),  8 [3300.0] ( 32 )
                 9 [3300.0] ( 33 ), 10 [2899.8] ( 34 ), 11 [2899.7] ( 35 )
        1:      12 [3300.0] ( 36 ), 13 [2899.7] ( 37 ), 14 [2900.6] ( 38 )
                15 [2900.3] ( 39 ), 16 [2900.2] ( 40 ), 17 [2899.7] ( 41 )
                18 [3300.0] ( 42 ), 19 [2902.5] ( 43 ), 20 [2899.7] ( 44 )
                21 [2899.6] ( 45 ), 22 [2899.8] ( 46 ), 23 [3300.0] ( 47 )
        
System load averages (1min, 5min, 15min) : 36.7 %, 36.9 %, 35.3 %
Hyperthreading is enabled


Simulating
        `/home/yongfu/proj/circuit-calibration/adc-calibration/model/adc-model/outputs/spectre/logs/netlists/dynamic_spectrum.scs'
        on river at 11:18:12 PM, Sun Jun 7, 2026 (process id: 4079696).
Current working directory:
        /home/yongfu/proj/circuit-calibration/adc-calibration/model/adc-model/outputs/spectre/logs
Command line:
    /eda/cadence/SPECTRE241/tools/bin/spectre -64  \
        /home/yongfu/proj/circuit-calibration/adc-calibration/model/adc-model/outputs/spectre/logs/netlists/dynamic_spectrum.scs
        \
        -format nutascii -raw  \
       
        /home/yongfu/proj/circuit-calibration/adc-calibration/model/adc-model/outputs/spectre/logs/dynamic_spectrum.nutascii
Licensing Information:
[23:18:12.080265] Configured Lic search path (24.01-s002):
        /eda/cadence/license.dat

Licensing Information:
[23:18:13.034184] Periodic Lic check successful

Reading file: 
        /home/yongfu/proj/circuit-calibration/adc-calibration/model/adc-model/outputs/spectre/logs/netlists/dynamic_spectrum.scs
Reading file: 
        /eda/cadence/SPECTRE241/tools.lnx86/spectre/etc/configs/spectre.cfg
Reading file: 
        /home/yongfu/proj/circuit-calibration/adc-calibration/model/adc-model/outputs/spectre/logs/netlists/configurable_adc.va
Reading file: 
        /eda/cadence/SPECTRE241/tools.lnx86/spectre/etc/ahdl/constants.vams
Reading file: 
        /eda/cadence/SPECTRE241/tools.lnx86/spectre/etc/ahdl/disciplines.vams
Reading file: 
        /home/yongfu/proj/circuit-calibration/adc-calibration/model/adc-model/outputs/spectre/logs/netlists/dnl_profile.inc
Reading file: 
        /home/yongfu/proj/circuit-calibration/adc-calibration/model/adc-model/outputs/spectre/logs/netlists/edge_noise.inc

Notice from spectre during AHDL read-in.
    "/home/yongfu/proj/circuit-calibration/adc-calibration/model/adc-model/outputs/spectre/logs/netlists/configurable_adc.va",
        line 19:  Module configurable_adc is a compact model. As a result, it
        has been optimized automatically for better performance. For more
        information on compact models, refer to the Cadence Verilog-A Language
        Reference manual.

Time for NDB Parsing: CPU = 928.75 ms, elapsed = 777.096 ms.
Time accumulated: CPU = 1.02784 s, elapsed = 777.098 ms.
Peak resident memory used = 222 Mbytes.

Existing shared object for module configurable_adc is up to date.
Installed compiled interface for configurable_adc.
Time for Elaboration: CPU = 32.647 ms, elapsed = 16.7351 ms.
Time accumulated: CPU = 1.06164 s, elapsed = 794.001 ms.
Peak resident memory used = 227 Mbytes.


Time for EDB Visiting: CPU = 1.999 ms, elapsed = 1.00708 ms.
Time accumulated: CPU = 1.06378 s, elapsed = 795.145 ms.
Peak resident memory used = 228 Mbytes.


Notice from spectre during topology check.
    Only one connection to node `v_code'.


Netlist title:
        // Dynamic spectrum testbench for configurable_adc (Cadence Spectre).


Global user options:

Scoped user options:

Circuit inventory:
              nodes 5
   configurable_adc 1     
            vsource 4     

Analysis and control statement inventory:
               tran 1     

Output statements:
             .probe 0     
           .measure 0     
               save 1     

Time for parsing: CPU = 4.901 ms, elapsed = 2.92015 ms.
Time accumulated: CPU = 1.06978 s, elapsed = 798.17 ms.
Peak resident memory used = 231 Mbytes.

~~~~~~~~~~~~~~~~~~~~~~
Pre-Simulation Summary
~~~~~~~~~~~~~~~~~~~~~~
~~~~~~~~~~~~~~~~~~~~~~

***************************************************
Transient Analysis `tran': time = (0 s -> 8.192 ms)
***************************************************
DC simulation time: CPU = 3.047 ms, elapsed = 1.16682 ms.
Important parameter values:
    start = 0 s
    outputstart = 0 s
    stop = 8.192 ms
    step = 8.192 us
    maxstep = 250 ns
    ic = all
    useprevic = no
    skipdc = no
    reltol = 1e-03
    abstol(V) = 1 uV
    abstol(I) = 1 pA
    temp = 27 C
    tnom = 27 C
    tempeffects = all
    errpreset = moderate
    method = traponly
    lteratio = 3.5
    relref = sigglobal
    cmin = 0 F
    gmin = 1 pS


Output and IC/nodeset summary:
                 save   3       (voltage)

......9......8......7......6......5......4......3......2......1......0
Number of accepted tran steps =             278480

Maximum value achieved for any signal of each quantity: 
V: V(vdd) = 1 V
I: I(VDD:p) = 0 A
If your circuit contains signals of the same quantity that are vastly different
        in size (such as high voltage circuitry combined with low voltage
        control circuitry), you should consider specifying global option
        `bin_relref=yes'.

~~~~~~~~~~~~~~~~~~~~~~~~~~~~~~~~~
Post-Transient Simulation Summary
~~~~~~~~~~~~~~~~~~~~~~~~~~~~~~~~~
   -   To further speed up simulation, consider
          add ++aps on command line
   -   Non-default settings that could significantly slow down simulation
          maxstep = 250 ns, default 163.84 us
~~~~~~~~~~~~~~~~~~~~~~~~~~~~~~~~~


During simulation, the CPU load for active processors is :
         0 (15.7 %)      1 (20.2 %)      2 (58.9 %)      3 (46.9 %)
         4 (48.6 %)      5 (4.4 %)       6 (67.7 %)      7 (10.3 %)
         8 (30.0 %)      9 (66.0 %)     10 (6.7 %)      11 (2.5 %)
        12 (53.6 %)     13 (46.3 %)     14 (86.6 %)     15 (16.1 %)
        16 (82.3 %)     17 (18.5 %)     18 (44.9 %)     19 (24.1 %)
        20 (33.7 %)     21 (59.9 %)     22 (14.7 %)     23 (30.8 %)
        24 (9.8 %)      25 (55.6 %)     26 (10.7 %)     27 (6.4 %)
        28 (50.2 %)     29 (97.4 %)     30 (4.6 %)      31 (65.1 %)
        32 (64.1 %)     33 (34.5 %)     34 (11.8 %)     35 (100.0 %)
        36 (26.9 %)     37 (13.4 %)     38 (8.3 %)      39 (79.8 %)
        40 (18.2 %)     41 (55.4 %)     42 (17.5 %)     43 (20.2 %)
        44 (7.9 %)      45 (36.0 %)     46 (47.0 %)     47 (18.6 %)
        Total: 1748.7%
Initial condition solution time: CPU = 3.102 ms, elapsed = 1.2219 ms.
Intrinsic tran analysis time:    CPU = 82.9887 s, elapsed = 79.016 s.
Total time required for tran analysis `tran': CPU = 82.9923 s (1m  23.0s),
        elapsed = 79.0178 s (1m  19.0s), util. = 105%.
Time accumulated: CPU = 84.0846 s (1m  24.1s), elapsed = 79.8339 s (1m 
        19.8s).
Peak resident memory used = 231 Mbytes.

Licensing Information:
Lic Summary:
[23:19:32.001232] cdslmd servers: /eda/cadence/license.dat
[23:19:32.016544] Feature usage summary:
[23:19:32.249407]   Virtuoso_Spectre  


Aggregate audit (11:19:32 PM, Sun Jun 7, 2026):
Time used: CPU = 84.1 s (1m  24.1s), elapsed = 84.1 s (1m  24.1s), util. =
        100%.
Time spent in licensing: elapsed = 280 ms.
Peak memory used = 230 Mbytes.
Simulation started at: 11:18:12 PM, Sun Jun 7, 2026, ended at: 11:19:32 PM, Sun
        Jun 7, 2026, with elapsed time (wall clock): 84.1 s (1m  24.1s).
spectre completes with 0 errors, 0 warnings, and 3 notices.
