
Spectre (R) Circuit Simulator
Version 24.1.0.167.isr2 64bit -- 28 Nov 2024
Copyright (C) 1989-2024 Cadence Design Systems, Inc. All rights reserved worldwide. Cadence and Spectre are registered trademarks of Cadence Design Systems, Inc. All others are the property of their respective holders.

Includes RSA BSAFE(R) Cryptographic or Security Protocol Software from RSA Security, Inc.

User: yongfu   Host: river   HostID: 7F0100   PID: 146498
Memory  available: 347.4542 GB  physical: 405.0724 GB
Linux   : Red Hat Enterprise Linux release 9.7 (Plow)
CPU Type: Intel(R) Xeon(R) CPU E5-2678 v3 @ 2.50GHz
All processors running at 2899.7 MHz
        Socket: Processors (Hyperthreaded Processor)
        0:       0 ( 24 ),  1 ( 25 ),  2 ( 26 ),  3 ( 27 ),  4 ( 28 )
                 5 ( 29 ),  6 ( 30 ),  7 ( 31 ),  8 ( 32 ),  9 ( 33 )
                10 ( 34 ), 11 ( 35 )
        1:      12 ( 36 ), 13 ( 37 ), 14 ( 38 ), 15 ( 39 ), 16 ( 40 )
                17 ( 41 ), 18 ( 42 ), 19 ( 43 ), 20 ( 44 ), 21 ( 45 )
                22 ( 46 ), 23 ( 47 )
        
System load averages (1min, 5min, 15min) : 87.8 %, 45.4 %, 52.5 %
Hyperthreading is enabled


Simulating `/home/yongfu/proj/adc-model/outputs/spectre/logs/netlists/static_inl_dnl.scs' on river at 5:59:02 PM, Thur Jun 4, 2026 (process id: 146498).
Current working directory: /home/yongfu/proj/adc-model/outputs/spectre/logs
Command line:
    /eda/cadence/SPECTRE241/tools/bin/spectre -64  \
        /home/yongfu/proj/adc-model/outputs/spectre/logs/netlists/static_inl_dnl.scs  \
        -format nutascii -raw  \
        /home/yongfu/proj/adc-model/outputs/spectre/logs/static_inl_dnl.nutascii

Licensing Information:
[17:59:02.080321] Configured Lic search path (24.01-s002): /eda/cadence/license.dat

Licensing Information:
[17:59:03.262968] Periodic Lic check successful

Loading /eda/cadence/SPECTRE241/tools.lnx86/cmi/lib/64bit/5.0/libinfineon_sh.so ...
Loading /eda/cadence/SPECTRE241/tools.lnx86/cmi/lib/64bit/5.0/libphilips_I_sh.so ...
Loading /eda/cadence/SPECTRE241/tools.lnx86/cmi/lib/64bit/5.0/libphilips_sh.so ...
Loading /eda/cadence/SPECTRE241/tools.lnx86/cmi/lib/64bit/5.0/libsparam_sh.so ...
Loading /eda/cadence/SPECTRE241/tools.lnx86/cmi/lib/64bit/5.0/libstmodels_sh.so ...
Reading file:  /home/yongfu/proj/adc-model/outputs/spectre/logs/netlists/static_inl_dnl.scs
Reading file:  /eda/cadence/SPECTRE241/tools.lnx86/spectre/etc/configs/spectre.cfg
Reading file:  /home/yongfu/proj/adc-model/veriloga/configurable_adc.va
Reading file:  /eda/cadence/SPECTRE241/tools.lnx86/spectre/etc/ahdl/constants.vams
Reading file:  /eda/cadence/SPECTRE241/tools.lnx86/spectre/etc/ahdl/disciplines.vams
Time for NDB Parsing: CPU = 274.831 ms, elapsed = 760.272 ms.
Time accumulated: CPU = 443.829 ms, elapsed = 760.274 ms.
Peak resident memory used = 193 Mbytes.

Existing shared object for module configurable_adc is up to date.
Installed compiled interface for configurable_adc.
Time for Elaboration: CPU = 44.372 ms, elapsed = 23.2608 ms.
Time accumulated: CPU = 488.34 ms, elapsed = 783.673 ms.
Peak resident memory used = 201 Mbytes.


Time for EDB Visiting: CPU = 1.657 ms, elapsed = 663.996 us.
Time accumulated: CPU = 490.146 ms, elapsed = 784.484 ms.
Peak resident memory used = 203 Mbytes.


Notice from spectre during topology check.
    Only one connection to node `v_code'.


Netlist title:
        // Static INL/DNL testbench for configurable_adc (Cadence Spectre).


Global user options:

Scoped user options:

Circuit inventory:
              nodes 5
   configurable_adc 1     
            vsource 4     

Analysis and control statement inventory:
               tran 1     

Output statements:
             .probe 0     
           .measure 0     
               save 1     

Time for parsing: CPU = 11.677 ms, elapsed = 6.19292 ms.
Time accumulated: CPU = 501.932 ms, elapsed = 790.786 ms.
Peak resident memory used = 206 Mbytes.

~~~~~~~~~~~~~~~~~~~~~~
Pre-Simulation Summary
~~~~~~~~~~~~~~~~~~~~~~
~~~~~~~~~~~~~~~~~~~~~~

****************************************************
Transient Analysis `tran': time = (0 s -> 16.384 ms)
****************************************************
DC simulation time: CPU = 1.96 ms, elapsed = 969.887 us.
Important parameter values:
    start = 0 s
    outputstart = 0 s
    stop = 16.384 ms
    step = 16.384 us
    maxstep = 250 ns
    ic = all
    useprevic = no
    skipdc = no
    reltol = 1e-03
    abstol(V) = 1 uV
    abstol(I) = 1 pA
    temp = 27 C
    tnom = 27 C
    tempeffects = all
    errpreset = moderate
    method = traponly
    lteratio = 3.5
    relref = sigglobal
    cmin = 0 F
    gmin = 1 pS


Output and IC/nodeset summary:
                 save   3       (voltage)

......9......8......7......6......5......4......3......2......1......0
Number of accepted tran steps =             464860

Maximum value achieved for any signal of each quantity: 
V: V(vdd) = 1 V
I: I(VDD:p) = 0 A
If your circuit contains signals of the same quantity that are vastly different in size (such as high voltage circuitry combined with low voltage control circuitry), you should consider specifying global option `bin_relref=yes'.

~~~~~~~~~~~~~~~~~~~~~~~~~~~~~~~~~
Post-Transient Simulation Summary
~~~~~~~~~~~~~~~~~~~~~~~~~~~~~~~~~
   -   To further speed up simulation, consider
          add ++aps on command line
   -   Non-default settings that could significantly slow down simulation
          maxstep = 250 ns, default 327.68 us
~~~~~~~~~~~~~~~~~~~~~~~~~~~~~~~~~


During simulation, the CPU load for active processors is :
         0 (99.5 %)      1 (99.7 %)      2 (99.4 %)      3 (99.3 %)
         4 (99.4 %)      5 (99.7 %)      6 (99.4 %)      7 (99.3 %)
         8 (99.1 %)      9 (99.4 %)     10 (99.3 %)     11 (99.2 %)
        12 (100.0 %)    13 (99.8 %)     14 (99.9 %)     15 (99.9 %)
        16 (99.9 %)     17 (100.0 %)    18 (99.6 %)     19 (100.0 %)
        20 (100.0 %)    21 (99.9 %)     22 (99.9 %)     23 (100.0 %)
        24 (99.1 %)     25 (99.4 %)     26 (99.3 %)     27 (99.3 %)
        28 (99.0 %)     29 (99.3 %)     30 (99.2 %)     31 (99.4 %)
        32 (99.3 %)     33 (99.4 %)     34 (99.2 %)     35 (99.1 %)
        36 (99.9 %)     37 (99.9 %)     38 (100.0 %)    39 (100.0 %)
        40 (100.0 %)    41 (100.0 %)    42 (99.7 %)     43 (100.0 %)
        44 (100.0 %)    45 (100.0 %)    46 (100.0 %)    47 (100.0 %)
        Total: 4782.3%
Initial condition solution time: CPU = 2.027 ms, elapsed = 1.03712 ms.
Intrinsic tran analysis time:    CPU = 38.9414 s, elapsed = 33.081 s.
Total time required for tran analysis `tran': CPU = 38.944 s, elapsed = 33.0826 s, util. = 118%.
Time accumulated: CPU = 39.4656 s, elapsed = 33.8924 s.
Peak resident memory used = 214 Mbytes.

Licensing Information:
Lic Summary:
[17:59:36.001320] cdslmd servers: /eda/cadence/license.dat
[17:59:36.016632] Feature usage summary:
[17:59:36.249495]   Virtuoso_Spectre  


Aggregate audit (5:59:36 PM, Thur Jun 4, 2026):
Time used: CPU = 39.5 s, elapsed = 39.5 s, util. = 100%.
Time spent in licensing: elapsed = 439 ms.
Peak memory used = 215 Mbytes.
Simulation started at: 5:59:02 PM, Thur Jun 4, 2026, ended at: 5:59:36 PM, Thur Jun 4, 2026, with elapsed time (wall clock): 39.5 s.
spectre completes with 0 errors, 0 warnings, and 2 notices.
