
Spectre (R) Circuit Simulator
Version 24.1.0.167.isr2 64bit -- 28 Nov 2024
Copyright (C) 1989-2024 Cadence Design Systems, Inc. All rights reserved worldwide. Cadence and Spectre are registered trademarks of Cadence Design Systems, Inc. All others are the property of their respective holders.

Includes RSA BSAFE(R) Cryptographic or Security Protocol Software from RSA Security, Inc.

User: yongfu   Host: river   HostID: 7F0100   PID: 3199721
Memory  available: 356.9865 GB  physical: 405.0724 GB
Linux   : Red Hat Enterprise Linux release 9.7 (Plow)
CPU Type: Intel(R) Xeon(R) CPU E5-2678 v3 @ 2.50GHz
        Socket: Processors [Frequency] (Hyperthreaded Processor)
        0:       0 [3091.3] ( 24 ),  1 [3300.0] ( 25 ),  2 [3162.2] ( 26 )
                 3 [3004.4] ( 27 ),  4 [3013.5] ( 28 ),  5 [3300.0] ( 29 )
                 6 [3300.0] ( 30 ),  7 [3300.0] ( 31 ),  8 [3300.0] ( 32 )
                 9 [3300.0] ( 33 ), 10 [3300.0] ( 34 ), 11 [3300.0] ( 35 )
        1:      12 [3300.0] ( 36 ), 13 [2893.8] ( 37 ), 14 [2898.6] ( 38 )
                15 [2969.2] ( 39 ), 16 [2921.1] ( 40 ), 17 [3300.0] ( 41 )
                18 [3300.0] ( 42 ), 19 [3300.0] ( 43 ), 20 [3300.0] ( 44 )
                21 [3300.0] ( 45 ), 22 [2899.2] ( 46 ), 23 [2954.4] ( 47 )
        
System load averages (1min, 5min, 15min) : 14.3 %, 13.3 %, 11.3 %
Hyperthreading is enabled


Simulating `/home/yongfu/proj/adc-model/outputs/spectre/logs/netlists/static_inl_dnl.scs' on river at 2:18:49 AM, Sat Jun 6, 2026 (process id: 3199721).
Current working directory: /home/yongfu/proj/adc-model/outputs/spectre/logs
Command line:
    /eda/cadence/SPECTRE241/tools/bin/spectre -64  \
        /home/yongfu/proj/adc-model/outputs/spectre/logs/netlists/static_inl_dnl.scs  \
        -format nutascii -raw  \
        /home/yongfu/proj/adc-model/outputs/spectre/logs/static_inl_dnl.nutascii

Licensing Information:
[02:18:49.080321] Configured Lic search path (24.01-s002): /eda/cadence/license.dat

Licensing Information:
[02:18:49.393905] Periodic Lic check successful

Loading /eda/cadence/SPECTRE241/tools.lnx86/cmi/lib/64bit/5.0/libinfineon_sh.so ...
Loading /eda/cadence/SPECTRE241/tools.lnx86/cmi/lib/64bit/5.0/libphilips_I_sh.so ...
Loading /eda/cadence/SPECTRE241/tools.lnx86/cmi/lib/64bit/5.0/libphilips_sh.so ...
Loading /eda/cadence/SPECTRE241/tools.lnx86/cmi/lib/64bit/5.0/libsparam_sh.so ...
Loading /eda/cadence/SPECTRE241/tools.lnx86/cmi/lib/64bit/5.0/libstmodels_sh.so ...
Reading file:  /home/yongfu/proj/adc-model/outputs/spectre/logs/netlists/static_inl_dnl.scs
Reading file:  /eda/cadence/SPECTRE241/tools.lnx86/spectre/etc/configs/spectre.cfg
Reading file:  /home/yongfu/proj/adc-model/outputs/spectre/logs/netlists/configurable_adc.va
Reading file:  /eda/cadence/SPECTRE241/tools.lnx86/spectre/etc/ahdl/constants.vams
Reading file:  /eda/cadence/SPECTRE241/tools.lnx86/spectre/etc/ahdl/disciplines.vams
Reading file:  /home/yongfu/proj/adc-model/outputs/spectre/logs/netlists/dnl_profile.inc
Reading file:  /home/yongfu/proj/adc-model/outputs/spectre/logs/netlists/edge_noise.inc

Notice from spectre during AHDL read-in.
    "/home/yongfu/proj/adc-model/outputs/spectre/logs/netlists/configurable_adc.va", line 19:  Module configurable_adc is a compact model. As a result, it has been optimized automatically for better performance. For more information on compact models, refer to the Cadence Verilog-A Language Reference manual.

Time for NDB Parsing: CPU = 1.42313 s, elapsed = 1.00976 s.
Time accumulated: CPU = 1.52245 s, elapsed = 1.00976 s.
Peak resident memory used = 292 Mbytes.

Existing shared object for module configurable_adc is up to date.
Installed compiled interface for configurable_adc.
Time for Elaboration: CPU = 31.698 ms, elapsed = 15.7831 ms.
Time accumulated: CPU = 1.55428 s, elapsed = 1.02568 s.
Peak resident memory used = 297 Mbytes.


Time for EDB Visiting: CPU = 1.96 ms, elapsed = 968.933 us.
Time accumulated: CPU = 1.55636 s, elapsed = 1.02676 s.
Peak resident memory used = 298 Mbytes.


Notice from spectre during topology check.
    Only one connection to node `v_code'.


Netlist title:
        // Static INL/DNL testbench for configurable_adc (Cadence Spectre).


Global user options:

Scoped user options:

Circuit inventory:
              nodes 5
   configurable_adc 1     
            vsource 4     

Analysis and control statement inventory:
               tran 1     

Output statements:
             .probe 0     
           .measure 0     
               save 1     

Time for parsing: CPU = 9.897 ms, elapsed = 4.92382 ms.
Time accumulated: CPU = 1.56635 s, elapsed = 1.03178 s.
Peak resident memory used = 301 Mbytes.

~~~~~~~~~~~~~~~~~~~~~~
Pre-Simulation Summary
~~~~~~~~~~~~~~~~~~~~~~
~~~~~~~~~~~~~~~~~~~~~~

****************************************************
Transient Analysis `tran': time = (0 s -> 16.384 ms)
****************************************************
DC simulation time: CPU = 3.121 ms, elapsed = 1.29795 ms.
Important parameter values:
    start = 0 s
    outputstart = 0 s
    stop = 16.384 ms
    step = 16.384 us
    maxstep = 250 ns
    ic = all
    useprevic = no
    skipdc = no
    reltol = 1e-03
    abstol(V) = 1 uV
    abstol(I) = 1 pA
    temp = 27 C
    tnom = 27 C
    tempeffects = all
    errpreset = moderate
    method = traponly
    lteratio = 3.5
    relref = sigglobal
    cmin = 0 F
    gmin = 1 pS


Output and IC/nodeset summary:
                 save   3       (voltage)

......9......8......7......6......5......4......3......2......1......0
Number of accepted tran steps =             487384

Maximum value achieved for any signal of each quantity: 
V: V(vdd) = 1 V
I: I(VDD:p) = 0 A
If your circuit contains signals of the same quantity that are vastly different in size (such as high voltage circuitry combined with low voltage control circuitry), you should consider specifying global option `bin_relref=yes'.

~~~~~~~~~~~~~~~~~~~~~~~~~~~~~~~~~
Post-Transient Simulation Summary
~~~~~~~~~~~~~~~~~~~~~~~~~~~~~~~~~
   -   To further speed up simulation, consider
          add ++aps on command line
   -   Non-default settings that could significantly slow down simulation
          maxstep = 250 ns, default 327.68 us
~~~~~~~~~~~~~~~~~~~~~~~~~~~~~~~~~


During simulation, the CPU load for active processors is :
         0 (18.7 %)      1 (10.6 %)      2 (26.1 %)      3 (55.8 %)
         4 (3.8 %)       5 (3.0 %)       6 (2.2 %)       7 (1.9 %)
         8 (39.6 %)      9 (38.6 %)     10 (2.5 %)      11 (12.9 %)
        12 (13.8 %)     13 (9.0 %)      14 (14.4 %)     15 (4.7 %)
        16 (9.4 %)      17 (13.3 %)     18 (9.9 %)      19 (26.7 %)
        20 (22.6 %)     21 (9.5 %)      22 (15.9 %)     23 (44.7 %)
        24 (42.7 %)     25 (4.5 %)      26 (4.0 %)      27 (2.8 %)
        28 (2.6 %)      29 (1.6 %)      30 (2.7 %)      31 (1.5 %)
        32 (3.4 %)      33 (8.9 %)      34 (5.2 %)      35 (63.9 %)
        36 (25.6 %)     37 (14.1 %)     38 (11.6 %)     39 (13.6 %)
        40 (13.8 %)     41 (4.6 %)      42 (10.3 %)     43 (27.3 %)
        44 (10.1 %)     45 (9.3 %)      46 (7.4 %)      47 (11.2 %)
        Total: 712.3%
Initial condition solution time: CPU = 3.17 ms, elapsed = 1.34897 ms.
Intrinsic tran analysis time:    CPU = 140.14 s, elapsed = 136.728 s.
Total time required for tran analysis `tran': CPU = 140.143 s (2m  20.1s), elapsed = 136.73 s (2m  16.7s), util. = 102%.
Time accumulated: CPU = 141.735 s (2m  21.7s), elapsed = 137.782 s (2m  17.8s).
Peak resident memory used = 301 Mbytes.

Licensing Information:
Lic Summary:
[02:21:07.001168] cdslmd servers: /eda/cadence/license.dat
[02:21:07.016480] Feature usage summary:
[02:21:07.249343]   Virtuoso_Spectre  


Aggregate audit (2:21:07 AM, Sat Jun 6, 2026):
Time used: CPU = 142 s (2m  21.7s), elapsed = 142 s (2m  21.7s), util. = 100%.
Time spent in licensing: elapsed = 258 ms.
Peak memory used = 300 Mbytes.
Simulation started at: 2:18:49 AM, Sat Jun 6, 2026, ended at: 2:21:07 AM, Sat Jun 6, 2026, with elapsed time (wall clock): 142 s (2m  21.7s).
spectre completes with 0 errors, 0 warnings, and 3 notices.
