
Spectre (R) Circuit Simulator
Version 24.1.0.167.isr2 64bit -- 28 Nov 2024
Copyright (C) 1989-2024 Cadence Design Systems, Inc. All rights reserved worldwide. Cadence and Spectre are registered trademarks of Cadence Design Systems, Inc. All others are the property of their respective holders.

Includes RSA BSAFE(R) Cryptographic or Security Protocol Software from RSA Security, Inc.

User: yongfu   Host: river   HostID: 7F0100   PID: 62169
Memory  available: 357.9740 GB  physical: 405.0724 GB
Linux   : Red Hat Enterprise Linux release 9.7 (Plow)
CPU Type: Intel(R) Xeon(R) CPU E5-2678 v3 @ 2.50GHz
        Socket: Processors [Frequency] (Hyperthreaded Processor)
        0:       0 [3139.2] ( 24 ),  1 [3300.0] ( 25 ),  2 [3199.8] ( 26 )
                 3 [2801.2] ( 27 ),  4 [2828.8] ( 28 ),  5 [3300.0] ( 29 )
                 6 [3300.0] ( 30 ),  7 [2852.9] ( 31 ),  8 [3300.0] ( 32 )
                 9 [3300.0] ( 33 ), 10 [3300.0] ( 34 ), 11 [3300.0] ( 35 )
        1:      12 [2914.8] ( 36 ), 13 [2900.0] ( 37 ), 14 [3300.0] ( 38 )
                15 [2807.5] ( 39 ), 16 [2935.1] ( 40 ), 17 [2963.4] ( 41 )
                18 [2958.9] ( 42 ), 19 [3300.0] ( 43 ), 20 [2807.6] ( 44 )
                21 [2899.9] ( 45 ), 22 [2899.5] ( 46 ), 23 [2830.4] ( 47 )
        
System load averages (1min, 5min, 15min) : 15.6 %, 13.9 %, 11.5 %
Hyperthreading is enabled


Simulating `/home/yongfu/proj/adc-model/outputs/spectre/logs/netlists/static_inl_dnl.scs' on river at 5:17:42 PM, Thur Jun 4, 2026 (process id: 62169).
Current working directory: /home/yongfu/proj/adc-model/outputs/spectre/logs
Command line:
    /eda/cadence/SPECTRE241/tools/bin/spectre -64  \
        /home/yongfu/proj/adc-model/outputs/spectre/logs/netlists/static_inl_dnl.scs  \
        -format nutascii -raw  \
        /home/yongfu/proj/adc-model/outputs/spectre/logs/static_inl_dnl.nutascii

Licensing Information:
[17:17:42.080305] Configured Lic search path (24.01-s002): /eda/cadence/license.dat

Licensing Information:
[17:17:42.414202] Periodic Lic check successful

Loading /eda/cadence/SPECTRE241/tools.lnx86/cmi/lib/64bit/5.0/libinfineon_sh.so ...
Loading /eda/cadence/SPECTRE241/tools.lnx86/cmi/lib/64bit/5.0/libphilips_I_sh.so ...
Loading /eda/cadence/SPECTRE241/tools.lnx86/cmi/lib/64bit/5.0/libphilips_sh.so ...
Loading /eda/cadence/SPECTRE241/tools.lnx86/cmi/lib/64bit/5.0/libsparam_sh.so ...
Loading /eda/cadence/SPECTRE241/tools.lnx86/cmi/lib/64bit/5.0/libstmodels_sh.so ...
Reading file:  /home/yongfu/proj/adc-model/outputs/spectre/logs/netlists/static_inl_dnl.scs
Reading file:  /eda/cadence/SPECTRE241/tools.lnx86/spectre/etc/configs/spectre.cfg
Reading file:  /home/yongfu/proj/adc-model/veriloga/configurable_adc.va
Reading file:  /eda/cadence/SPECTRE241/tools.lnx86/spectre/etc/ahdl/constants.vams
Reading file:  /eda/cadence/SPECTRE241/tools.lnx86/spectre/etc/ahdl/disciplines.vams

Notice from spectre during AHDL read-in.
    "/home/yongfu/proj/adc-model/veriloga/configurable_adc.va", line 16:  Module configurable_adc is a compact model. As a result, it has been optimized automatically for better performance. For more information on compact models, refer to the Cadence Verilog-A Language Reference manual.

Time for NDB Parsing: CPU = 218.446 ms, elapsed = 403.415 ms.
Time accumulated: CPU = 315.575 ms, elapsed = 403.417 ms.
Peak resident memory used = 195 Mbytes.

Created directory ./static_inl_dnl.ahdlSimDB/ (775)
Created directory ./static_inl_dnl.ahdlSimDB//8018326cd2bfed203e19955624c094e5.configurable_adc.ahdlcmi/ (775)
Created directory ./static_inl_dnl.ahdlSimDB//8018326cd2bfed203e19955624c094e5.configurable_adc.ahdlcmi/Linux-64/ (775)

Warning from spectre during AHDL read-in.
    WARNING (VACOMP-2409): "/home/yongfu/proj/adc-model/veriloga/configurable_adc.va", line 43: A variable `dnl_offset' in compact module `configurable_adc' has not been assigned a value, and therefore, it has been processed as a hidden state variable. This may slow down the simulation. Assign a value to the variable before using it, or set the 'CDS_AHDL_IGNORE_HIDDEN_STATE' environment variable to YES to process all hidden state variables as non-hidden state variables for all Verilog-A modules. Alternatively, specify the (* ignore_hidden_state="all" *) attribute to process the hidden state variables as non-hidden state variables in the module.
    WARNING (VACOMP-2409): "/home/yongfu/proj/adc-model/veriloga/configurable_adc.va", line 45: A variable `vin_prev' in compact module `configurable_adc' has not been assigned a value, and therefore, it has been processed as a hidden state variable. This may slow down the simulation. Assign a value to the variable before using it, or set the 'CDS_AHDL_IGNORE_HIDDEN_STATE' environment variable to YES to process all hidden state variables as non-hidden state variables for all Verilog-A modules. Alternatively, specify the (* ignore_hidden_state="all" *) attribute to process the hidden state variables as non-hidden state variables in the module.
    WARNING (VACOMP-2409): "/home/yongfu/proj/adc-model/veriloga/configurable_adc.va", line 47: A variable `t_prev' in compact module `configurable_adc' has not been assigned a value, and therefore, it has been processed as a hidden state variable. This may slow down the simulation. Assign a value to the variable before using it, or set the 'CDS_AHDL_IGNORE_HIDDEN_STATE' environment variable to YES to process all hidden state variables as non-hidden state variables for all Verilog-A modules. Alternatively, specify the (* ignore_hidden_state="all" *) attribute to process the hidden state variables as non-hidden state variables in the module.
    WARNING (VACOMP-2409): "/home/yongfu/proj/adc-model/veriloga/configurable_adc.va", line 55: A variable `code_int' in compact module `configurable_adc' has not been assigned a value, and therefore, it has been processed as a hidden state variable. This may slow down the simulation. Assign a value to the variable before using it, or set the 'CDS_AHDL_IGNORE_HIDDEN_STATE' environment variable to YES to process all hidden state variables as non-hidden state variables for all Verilog-A modules. Alternatively, specify the (* ignore_hidden_state="all" *) attribute to process the hidden state variables as non-hidden state variables in the module.
    WARNING (VACOMP-2409): "/home/yongfu/proj/adc-model/veriloga/configurable_adc.va", line 62: A variable `rand_seed' in compact module `configurable_adc' has not been assigned a value, and therefore, it has been processed as a hidden state variable. This may slow down the simulation. Assign a value to the variable before using it, or set the 'CDS_AHDL_IGNORE_HIDDEN_STATE' environment variable to YES to process all hidden state variables as non-hidden state variables for all Verilog-A modules. Alternatively, specify the (* ignore_hidden_state="all" *) attribute to process the hidden state variables as non-hidden state variables in the module.
        Further occurrences of this warning will be suppressed.

Compiling ahdlcmi module library for configurable_adc.
Finished compilation in 2.18 s (elapsed) for configurable_adc.
Installed compiled interface for configurable_adc.
Time for Elaboration: CPU = 2.33838 s, elapsed = 2.26326 s.
Time accumulated: CPU = 2.65509 s, elapsed = 2.66684 s.
Peak resident memory used = 214 Mbytes.


Time for EDB Visiting: CPU = 1.937 ms, elapsed = 943.899 us.
Time accumulated: CPU = 2.65715 s, elapsed = 2.66791 s.
Peak resident memory used = 215 Mbytes.


Notice from spectre during topology check.
    Only one connection to node `v_code'.


Netlist title:
        // Static INL/DNL testbench for configurable_adc (Cadence Spectre).


Global user options:

Scoped user options:

Circuit inventory:
              nodes 5
   configurable_adc 1     
            vsource 4     

Analysis and control statement inventory:
               tran 1     

Output statements:
             .probe 0     
           .measure 0     
               save 1     


Notice from spectre.
    1 warning suppressed.

Time for parsing: CPU = 3.685 ms, elapsed = 1.69492 ms.
Time accumulated: CPU = 2.66092 s, elapsed = 2.66968 s.
Peak resident memory used = 218 Mbytes.

~~~~~~~~~~~~~~~~~~~~~~
Pre-Simulation Summary
~~~~~~~~~~~~~~~~~~~~~~
~~~~~~~~~~~~~~~~~~~~~~

****************************************************
Transient Analysis `tran': time = (0 s -> 16.384 ms)
****************************************************
DC simulation time: CPU = 597 us, elapsed = 598.192 us.
Important parameter values:
    start = 0 s
    outputstart = 0 s
    stop = 16.384 ms
    step = 16.384 us
    maxstep = 250 ns
    ic = all
    useprevic = no
    skipdc = no
    reltol = 1e-03
    abstol(V) = 1 uV
    abstol(I) = 1 pA
    temp = 27 C
    tnom = 27 C
    tempeffects = all
    errpreset = moderate
    method = traponly
    lteratio = 3.5
    relref = sigglobal
    cmin = 0 F
    gmin = 1 pS


Output and IC/nodeset summary:
                 save   3       (voltage)

......9......8......7......6......5......4......3......2......1......0
Number of accepted tran steps =             464860

Maximum value achieved for any signal of each quantity: 
V: V(vdd) = 1 V
I: I(VDD:p) = 0 A
If your circuit contains signals of the same quantity that are vastly different in size (such as high voltage circuitry combined with low voltage control circuitry), you should consider specifying global option `bin_relref=yes'.

~~~~~~~~~~~~~~~~~~~~~~~~~~~~~~~~~
Post-Transient Simulation Summary
~~~~~~~~~~~~~~~~~~~~~~~~~~~~~~~~~
   -   To further speed up simulation, consider
          add ++aps on command line
   -   Non-default settings that could significantly slow down simulation
          maxstep = 250 ns, default 327.68 us
~~~~~~~~~~~~~~~~~~~~~~~~~~~~~~~~~


During simulation, the CPU load for active processors is :
         0 (29.9 %)      1 (4.5 %)       2 (96.4 %)      3 (4.9 %)
         4 (1.6 %)       5 (2.3 %)       6 (1.8 %)       7 (3.0 %)
         8 (3.6 %)       9 (2.8 %)      10 (1.7 %)      11 (2.7 %)
        12 (2.9 %)      13 (2.1 %)      14 (2.6 %)      15 (2.2 %)
        16 (75.4 %)     17 (17.5 %)     18 (100.0 %)    19 (3.7 %)
        20 (3.4 %)      21 (2.8 %)      22 (2.6 %)      23 (3.7 %)
        24 (74.0 %)     25 (1.2 %)      26 (3.8 %)      27 (2.6 %)
        28 (3.6 %)      29 (1.8 %)      30 (2.1 %)      31 (2.1 %)
        32 (1.0 %)      33 (2.0 %)      34 (1.6 %)      35 (1.1 %)
        36 (1.6 %)      37 (3.2 %)      38 (5.7 %)      39 (7.3 %)
        40 (2.0 %)      41 (5.4 %)      43 (3.9 %)      44 (3.3 %)
        45 (3.4 %)      46 (22.9 %)     47 (3.5 %)      
        Total: 534.0%
Initial condition solution time: CPU = 642 us, elapsed = 643.969 us.
Intrinsic tran analysis time:    CPU = 20.2888 s, elapsed = 18.1752 s.
Total time required for tran analysis `tran': CPU = 20.2919 s, elapsed = 18.1764 s, util. = 112%.
Time accumulated: CPU = 22.9655 s, elapsed = 20.8589 s.
Peak resident memory used = 223 Mbytes.

Licensing Information:
Lic Summary:
[17:18:02.001224] cdslmd servers: /eda/cadence/license.dat
[17:18:02.016536] Feature usage summary:
[17:18:02.249399]   Virtuoso_Spectre  


Aggregate audit (5:18:02 PM, Thur Jun 4, 2026):
Time used: CPU = 23 s, elapsed = 23 s, util. = 100%.
Time spent in licensing: elapsed = 255 ms.
Peak memory used = 223 Mbytes.
Simulation started at: 5:17:42 PM, Thur Jun 4, 2026, ended at: 5:18:02 PM, Thur Jun 4, 2026, with elapsed time (wall clock): 23 s.
spectre completes with 0 errors, 5 warnings, and 4 notices.
