
Spectre (R) Circuit Simulator
Version 24.1.0.167.isr2 64bit -- 28 Nov 2024
Copyright (C) 1989-2024 Cadence Design Systems, Inc. All rights reserved worldwide. Cadence and Spectre are registered trademarks of Cadence Design Systems, Inc. All others are the property of their respective holders.

Includes RSA BSAFE(R) Cryptographic or Security Protocol Software from RSA Security, Inc.

User: yongfu   Host: river   HostID: 7F0100   PID: 279349
Memory  available: 336.5462 GB  physical: 405.0724 GB
Linux   : Red Hat Enterprise Linux release 9.7 (Plow)
CPU Type: Intel(R) Xeon(R) CPU E5-2678 v3 @ 2.50GHz
        Socket: Processors [Frequency] (Hyperthreaded Processor)
        0:       0 [2983.9] ( 24 ),  1 [3300.0] ( 25 ),  2 [3300.0] ( 26 )
                 3 [2900.1] ( 27 ),  4 [3300.0] ( 28 ),  5 [2989.5] ( 29 )
                 6 [2954.8] ( 30 ),  7 [3300.0] ( 31 ),  8 [2929.7] ( 32 )
                 9 [2900.4] ( 33 ), 10 [3300.0] ( 34 ), 11 [2910.2] ( 35 )
        1:      12 [3300.0] ( 36 ), 13 [3300.0] ( 37 ), 14 [3300.0] ( 38 )
                15 [3300.0] ( 39 ), 16 [3027.7] ( 40 ), 17 [3300.0] ( 41 )
                18 [3300.0] ( 42 ), 19 [2911.8] ( 43 ), 20 [2957.7] ( 44 )
                21 [3300.0] ( 45 ), 22 [3300.0] ( 46 ), 23 [3300.0] ( 47 )
        
System load averages (1min, 5min, 15min) : 14.9 %, 39.1 %, 73.4 %
Hyperthreading is enabled


Simulating `/home/yongfu/proj/adc-calibration/model/adc-model/outputs/spectre/logs/netlists/static_inl_dnl.scs' on river at 7:17:03 PM, Thur Jun 4, 2026 (process id: 279349).
Current working directory: /home/yongfu/proj/adc-calibration/model/adc-model/outputs/spectre/logs
Command line:
    /eda/cadence/SPECTRE241/tools/bin/spectre -64  \
        /home/yongfu/proj/adc-calibration/model/adc-model/outputs/spectre/logs/netlists/static_inl_dnl.scs  \
        -format nutascii -raw  \
        /home/yongfu/proj/adc-calibration/model/adc-model/outputs/spectre/logs/static_inl_dnl.nutascii

Licensing Information:
[19:17:03.080297] Configured Lic search path (24.01-s002): /eda/cadence/license.dat

Licensing Information:
[19:17:03.233426] Periodic Lic check successful

Loading /eda/cadence/SPECTRE241/tools.lnx86/cmi/lib/64bit/5.0/libinfineon_sh.so ...
Loading /eda/cadence/SPECTRE241/tools.lnx86/cmi/lib/64bit/5.0/libphilips_I_sh.so ...
Loading /eda/cadence/SPECTRE241/tools.lnx86/cmi/lib/64bit/5.0/libphilips_sh.so ...
Loading /eda/cadence/SPECTRE241/tools.lnx86/cmi/lib/64bit/5.0/libsparam_sh.so ...
Loading /eda/cadence/SPECTRE241/tools.lnx86/cmi/lib/64bit/5.0/libstmodels_sh.so ...
Reading file:  /home/yongfu/proj/adc-calibration/model/adc-model/outputs/spectre/logs/netlists/static_inl_dnl.scs
Reading file:  /eda/cadence/SPECTRE241/tools.lnx86/spectre/etc/configs/spectre.cfg
Reading file:  /home/yongfu/proj/adc-calibration/model/adc-model/veriloga/configurable_adc.va
Reading file:  /eda/cadence/SPECTRE241/tools.lnx86/spectre/etc/ahdl/constants.vams
Reading file:  /eda/cadence/SPECTRE241/tools.lnx86/spectre/etc/ahdl/disciplines.vams
Time for NDB Parsing: CPU = 175.934 ms, elapsed = 381.85 ms.
Time accumulated: CPU = 269.159 ms, elapsed = 381.852 ms.
Peak resident memory used = 196 Mbytes.

Existing shared object for module configurable_adc is up to date.
Installed compiled interface for configurable_adc.
Time for Elaboration: CPU = 37.911 ms, elapsed = 19.0251 ms.
Time accumulated: CPU = 307.169 ms, elapsed = 400.976 ms.
Peak resident memory used = 205 Mbytes.


Time for EDB Visiting: CPU = 1.566 ms, elapsed = 574.112 us.
Time accumulated: CPU = 308.851 ms, elapsed = 401.664 ms.
Peak resident memory used = 206 Mbytes.


Notice from spectre during topology check.
    Only one connection to node `v_code'.


Netlist title:
        // Static INL/DNL testbench for configurable_adc (Cadence Spectre).


Global user options:

Scoped user options:

Circuit inventory:
              nodes 5
   configurable_adc 1     
            vsource 4     

Analysis and control statement inventory:
               tran 1     

Output statements:
             .probe 0     
           .measure 0     
               save 1     

Time for parsing: CPU = 6.325 ms, elapsed = 3.36003 ms.
Time accumulated: CPU = 315.266 ms, elapsed = 405.114 ms.
Peak resident memory used = 209 Mbytes.

~~~~~~~~~~~~~~~~~~~~~~
Pre-Simulation Summary
~~~~~~~~~~~~~~~~~~~~~~
~~~~~~~~~~~~~~~~~~~~~~

****************************************************
Transient Analysis `tran': time = (0 s -> 16.384 ms)
****************************************************
DC simulation time: CPU = 1.604 ms, elapsed = 613.213 us.
Important parameter values:
    start = 0 s
    outputstart = 0 s
    stop = 16.384 ms
    step = 16.384 us
    maxstep = 250 ns
    ic = all
    useprevic = no
    skipdc = no
    reltol = 1e-03
    abstol(V) = 1 uV
    abstol(I) = 1 pA
    temp = 27 C
    tnom = 27 C
    tempeffects = all
    errpreset = moderate
    method = traponly
    lteratio = 3.5
    relref = sigglobal
    cmin = 0 F
    gmin = 1 pS


Output and IC/nodeset summary:
                 save   3       (voltage)

......9......8......7......6......5......4......3......2......1......0
Number of accepted tran steps =             464860

Maximum value achieved for any signal of each quantity: 
V: V(vdd) = 1 V
I: I(VDD:p) = 0 A
If your circuit contains signals of the same quantity that are vastly different in size (such as high voltage circuitry combined with low voltage control circuitry), you should consider specifying global option `bin_relref=yes'.

~~~~~~~~~~~~~~~~~~~~~~~~~~~~~~~~~
Post-Transient Simulation Summary
~~~~~~~~~~~~~~~~~~~~~~~~~~~~~~~~~
   -   To further speed up simulation, consider
          add ++aps on command line
   -   Non-default settings that could significantly slow down simulation
          maxstep = 250 ns, default 327.68 us
~~~~~~~~~~~~~~~~~~~~~~~~~~~~~~~~~


During simulation, the CPU load for active processors is :
         0 (11.3 %)      1 (13.3 %)      2 (1.4 %)       3 (1.6 %)
         4 (1.5 %)       5 (1.5 %)       6 (1.5 %)       7 (96.0 %)
         8 (2.5 %)       9 (23.6 %)     10 (3.5 %)      11 (100.0 %)
        12 (1.1 %)      13 (2.9 %)      14 (3.7 %)      15 (1.9 %)
        16 (59.1 %)     17 (3.6 %)      18 (2.4 %)      19 (3.4 %)
        20 (2.8 %)      21 (10.7 %)     22 (2.3 %)      23 (3.5 %)
        24 (78.6 %)     25 (6.4 %)      26 (1.4 %)      27 (1.4 %)
        28 (2.4 %)      29 (1.4 %)      30 (1.5 %)      31 (1.6 %)
        32 (2.1 %)      33 (1.3 %)      34 (2.0 %)      35 (1.2 %)
        36 (100.0 %)    37 (3.0 %)      38 (5.3 %)      39 (3.0 %)
        40 (32.4 %)     41 (5.2 %)      42 (2.5 %)      43 (2.1 %)
        44 (1.9 %)      45 (9.7 %)      46 (1.8 %)      47 (1.7 %)
        Total: 625.1%
Initial condition solution time: CPU = 1.657 ms, elapsed = 666.142 us.
Intrinsic tran analysis time:    CPU = 23.5475 s, elapsed = 19.1866 s.
Total time required for tran analysis `tran': CPU = 23.5497 s, elapsed = 19.1878 s, util. = 123%.
Time accumulated: CPU = 23.8765 s, elapsed = 19.6045 s.
Peak resident memory used = 218 Mbytes.

Licensing Information:
Lic Summary:
[19:17:23.001256] cdslmd servers: /eda/cadence/license.dat
[19:17:23.016568] Feature usage summary:
[19:17:23.249431]   Virtuoso_Spectre  


Aggregate audit (7:17:23 PM, Thur Jun 4, 2026):
Time used: CPU = 23.9 s, elapsed = 23.9 s, util. = 100%.
Time spent in licensing: elapsed = 469 ms.
Peak memory used = 218 Mbytes.
Simulation started at: 7:17:03 PM, Thur Jun 4, 2026, ended at: 7:17:23 PM, Thur Jun 4, 2026, with elapsed time (wall clock): 23.9 s.
spectre completes with 0 errors, 0 warnings, and 2 notices.
